REMARK  Name = ../refined-set-2016/1a30/1a30_pocket.pdb
REMARK  188 active torsions:
REMARK  status: ('A' for Active; 'I' for Inactive)
REMARK    1  A    between atoms: _1  and  _3
REMARK    2  A    between atoms: _3  and  _4
REMARK    3  A    between atoms: _3  and  _6
REMARK    4  A    between atoms: _6  and  _7
REMARK    5  A    between atoms: _10  and  _12
REMARK    6  A    between atoms: _12  and  _13
REMARK    7  A    between atoms: _12  and  _15
REMARK    8  A    between atoms: _15  and  _16
REMARK    9  A    between atoms: _19  and  _21
REMARK   10  A    between atoms: _21  and  _22
REMARK   11  A    between atoms: _21  and  _24
REMARK   12  A    between atoms: _24  and  _25
REMARK   13  A    between atoms: _28  and  _30
REMARK   14  A    between atoms: _30  and  _31
REMARK   15  A    between atoms: _30  and  _33
REMARK   16  A    between atoms: _33  and  _34
REMARK   17  A    between atoms: _37  and  _39
REMARK   18  A    between atoms: _39  and  _40
REMARK   19  A    between atoms: _42  and  _44
REMARK   20  A    between atoms: _44  and  _45
REMARK   21  A    between atoms: _48  and  _50
REMARK   22  A    between atoms: _50  and  _51
REMARK   23  A    between atoms: _50  and  _53
REMARK   24  A    between atoms: _53  and  _54
REMARK   25  A    between atoms: _57  and  _59
REMARK   26  A    between atoms: _59  and  _60
REMARK   27  A    between atoms: _59  and  _62
REMARK   28  A    between atoms: _62  and  _63
REMARK   29  A    between atoms: _66  and  _68
REMARK   30  A    between atoms: _68  and  _69
REMARK   31  A    between atoms: _68  and  _71
REMARK   32  A    between atoms: _71  and  _72
REMARK   33  A    between atoms: _75  and  _77
REMARK   34  A    between atoms: _77  and  _78
REMARK   35  A    between atoms: _77  and  _80
REMARK   36  A    between atoms: _83  and  _85
REMARK   37  A    between atoms: _85  and  _86
REMARK   38  A    between atoms: _85  and  _88
REMARK   39  A    between atoms: _88  and  _89
REMARK   40  A    between atoms: _89  and  _90
REMARK   41  A    between atoms: _90  and  _91
REMARK   42  A    between atoms: _91  and  _92
REMARK   43  A    between atoms: _96  and  _98
REMARK   44  A    between atoms: _98  and  _99
REMARK   45  A    between atoms: _98  and  _101
REMARK   46  A    between atoms: _101  and  _102
REMARK   47  A    between atoms: _102  and  _103
REMARK   48  A    between atoms: _105  and  _107
REMARK   49  A    between atoms: _107  and  _108
REMARK   50  A    between atoms: _107  and  _110
REMARK   51  A    between atoms: _110  and  _111
REMARK   52  A    between atoms: _114  and  _116
REMARK   53  A    between atoms: _116  and  _117
REMARK   54  A    between atoms: _119  and  _121
REMARK   55  A    between atoms: _121  and  _122
REMARK   56  A    between atoms: _124  and  _126
REMARK   57  A    between atoms: _126  and  _127
REMARK   58  A    between atoms: _126  and  _129
REMARK   59  A    between atoms: _129  and  _130
REMARK   60  A    between atoms: _133  and  _135
REMARK   61  A    between atoms: _135  and  _136
REMARK   62  A    between atoms: _138  and  _140
REMARK   63  A    between atoms: _140  and  _141
REMARK   64  A    between atoms: _143  and  _145
REMARK   65  A    between atoms: _145  and  _146
REMARK   66  A    between atoms: _145  and  _148
REMARK   67  A    between atoms: _148  and  _149
REMARK   68  A    between atoms: _155  and  _157
REMARK   69  A    between atoms: _157  and  _158
REMARK   70  A    between atoms: _157  and  _160
REMARK   71  A    between atoms: _160  and  _161
REMARK   72  A    between atoms: _164  and  _166
REMARK   73  A    between atoms: _166  and  _167
REMARK   74  A    between atoms: _166  and  _169
REMARK   75  A    between atoms: _172  and  _174
REMARK   76  A    between atoms: _174  and  _175
REMARK   77  A    between atoms: _174  and  _177
REMARK   78  A    between atoms: _177  and  _178
REMARK   79  A    between atoms: _181  and  _183
REMARK   80  A    between atoms: _183  and  _184
REMARK   81  A    between atoms: _183  and  _186
REMARK   82  A    between atoms: _186  and  _187
REMARK   83  A    between atoms: _191  and  _192
REMARK   84  A    between atoms: _197  and  _199
REMARK   85  A    between atoms: _199  and  _200
REMARK   86  A    between atoms: _199  and  _202
REMARK   87  A    between atoms: _202  and  _203
REMARK   88  A    between atoms: _206  and  _208
REMARK   89  A    between atoms: _208  and  _209
REMARK   90  A    between atoms: _208  and  _211
REMARK   91  A    between atoms: _211  and  _212
REMARK   92  A    between atoms: _215  and  _217
REMARK   93  A    between atoms: _217  and  _218
REMARK   94  A    between atoms: _220  and  _222
REMARK   95  A    between atoms: _222  and  _223
REMARK   96  A    between atoms: _222  and  _225
REMARK   97  A    between atoms: _225  and  _226
REMARK   98  A    between atoms: _226  and  _227
REMARK   99  A    between atoms: _227  and  _228
REMARK  100  A    between atoms: _237  and  _239
REMARK  101  A    between atoms: _239  and  _240
REMARK  102  A    between atoms: _239  and  _242
REMARK  103  A    between atoms: _242  and  _243
REMARK  104  A    between atoms: _248  and  _250
REMARK  105  A    between atoms: _250  and  _251
REMARK  106  A    between atoms: _250  and  _253
REMARK  107  A    between atoms: _253  and  _254
REMARK  108  A    between atoms: _254  and  _255
REMARK  109  A    between atoms: _255  and  _256
REMARK  110  A    between atoms: _266  and  _267
REMARK  111  A    between atoms: _272  and  _274
REMARK  112  A    between atoms: _274  and  _275
REMARK  113  A    between atoms: _274  and  _277
REMARK  114  A    between atoms: _277  and  _278
REMARK  115  A    between atoms: _281  and  _283
REMARK  116  A    between atoms: _283  and  _284
REMARK  117  A    between atoms: _283  and  _286
REMARK  118  A    between atoms: _286  and  _287
REMARK  119  A    between atoms: _290  and  _292
REMARK  120  A    between atoms: _292  and  _293
REMARK  121  A    between atoms: _292  and  _295
REMARK  122  A    between atoms: _295  and  _296
REMARK  123  A    between atoms: _299  and  _301
REMARK  124  A    between atoms: _301  and  _302
REMARK  125  A    between atoms: _301  and  _304
REMARK  126  A    between atoms: _304  and  _305
REMARK  127  A    between atoms: _308  and  _310
REMARK  128  A    between atoms: _310  and  _311
REMARK  129  A    between atoms: _310  and  _313
REMARK  130  A    between atoms: _313  and  _314
REMARK  131  A    between atoms: _317  and  _319
REMARK  132  A    between atoms: _319  and  _320
REMARK  133  A    between atoms: _322  and  _324
REMARK  134  A    between atoms: _324  and  _325
REMARK  135  A    between atoms: _328  and  _330
REMARK  136  A    between atoms: _330  and  _331
REMARK  137  A    between atoms: _330  and  _333
REMARK  138  A    between atoms: _333  and  _334
REMARK  139  A    between atoms: _337  and  _339
REMARK  140  A    between atoms: _339  and  _340
REMARK  141  A    between atoms: _339  and  _342
REMARK  142  A    between atoms: _342  and  _343
REMARK  143  A    between atoms: _346  and  _348
REMARK  144  A    between atoms: _348  and  _349
REMARK  145  A    between atoms: _348  and  _351
REMARK  146  A    between atoms: _354  and  _356
REMARK  147  A    between atoms: _356  and  _357
REMARK  148  A    between atoms: _356  and  _359
REMARK  149  A    between atoms: _359  and  _360
REMARK  150  A    between atoms: _363  and  _365
REMARK  151  A    between atoms: _365  and  _366
REMARK  152  A    between atoms: _368  and  _370
REMARK  153  A    between atoms: _370  and  _371
REMARK  154  A    between atoms: _373  and  _375
REMARK  155  A    between atoms: _375  and  _376
REMARK  156  A    between atoms: _375  and  _378
REMARK  157  A    between atoms: _378  and  _379
REMARK  158  A    between atoms: _382  and  _384
REMARK  159  A    between atoms: _384  and  _385
REMARK  160  A    between atoms: _387  and  _389
REMARK  161  A    between atoms: _389  and  _390
REMARK  162  A    between atoms: _392  and  _394
REMARK  163  A    between atoms: _394  and  _395
REMARK  164  A    between atoms: _394  and  _397
REMARK  165  A    between atoms: _397  and  _398
REMARK  166  A    between atoms: _402  and  _403
REMARK  167  A    between atoms: _408  and  _410
REMARK  168  A    between atoms: _410  and  _411
REMARK  169  A    between atoms: _410  and  _413
REMARK  170  A    between atoms: _413  and  _414
REMARK  171  A    between atoms: _418  and  _419
REMARK  172  A    between atoms: _424  and  _426
REMARK  173  A    between atoms: _426  and  _427
REMARK  174  A    between atoms: _426  and  _429
REMARK  175  A    between atoms: _432  and  _434
REMARK  176  A    between atoms: _434  and  _435
REMARK  177  A    between atoms: _434  and  _437
REMARK  178  A    between atoms: _437  and  _438
REMARK  179  A    between atoms: _443  and  _445
REMARK  180  A    between atoms: _445  and  _446
REMARK  181  A    between atoms: _445  and  _448
REMARK  182  A    between atoms: _448  and  _449
REMARK  183  A    between atoms: _452  and  _454
REMARK  184  A    between atoms: _454  and  _455
REMARK  185  A    between atoms: _454  and  _457
REMARK  186  A    between atoms: _457  and  _458
REMARK  187  A    between atoms: _461  and  _463
REMARK  188  A    between atoms: _463  and  _464
REMARK                            x       y       z     vdW  Elec       q    Type
REMARK                         _______ _______ _______ _____ _____    ______ ____
ROOT
ATOM      1  C   GLY A   5      12.178  28.178   3.344  0.00  0.00    +0.243 C 
ATOM      2  N   ALA A   6      12.440  28.953   4.393  0.00  0.00    -0.297 N 
ATOM      3  H   ALA A   6      13.355  29.446   4.437  0.00  0.00    +0.150 HD
ATOM      4  O   GLY A   5      11.107  27.580   3.202  0.00  0.00    -0.273 OA
ENDROOT
BRANCH   2   5
ATOM      5  CA  ALA A   6      11.489  29.136   5.484  0.00  0.00    +0.149 C 
ATOM      6  CB  ALA A   6      12.196  28.944   6.818  0.00  0.00    +0.031 C 
BRANCH   5   7
ATOM      7  C   ALA A   6      10.765  30.482   5.488  0.00  0.00    +0.241 C 
ATOM      8  N   ASP A   7       9.434  30.446   5.562  0.00  0.00    -0.297 N 
ATOM      9  H   ASP A   7       8.948  29.527   5.573  0.00  0.00    +0.150 HD
ATOM     10  O   ALA A   6      11.408  31.539   5.439  0.00  0.00    -0.273 OA
BRANCH   8  11
ATOM     11  CA  ASP A   7       8.645  31.678   5.628  0.00  0.00    +0.160 C 
BRANCH  11  12
ATOM     12  C   ASP A   7       8.848  32.329   6.986  0.00  0.00    +0.241 C 
ATOM     13  N   ASP A   8       8.895  31.505   8.035  0.00  0.00    -0.297 N 
ATOM     14  H   ASP A   8       8.834  30.481   7.865  0.00  0.00    +0.150 HD
ATOM     15  O   ASP A   7       8.932  33.552   7.079  0.00  0.00    -0.273 OA
BRANCH  13  16
ATOM     16  CA  ASP A   8       9.028  31.976   9.412  0.00  0.00    +0.160 C 
BRANCH  16  17
ATOM     17  C   ASP A   8      10.378  31.659  10.056  0.00  0.00    +0.241 C 
ATOM     18  N   THR A   9      10.545  32.141  11.278  0.00  0.00    -0.295 N 
ATOM     19  H   THR A   9       9.782  32.716  11.689  0.00  0.00    +0.150 HD
ATOM     20  O   ASP A   8      11.223  30.976   9.477  0.00  0.00    -0.273 OA
BRANCH  18  21
ATOM     21  CA  THR A   9      11.739  31.909  12.075  0.00  0.00    +0.176 C 
BRANCH  21  22
ATOM     22  C   THR A   9      11.220  31.008  13.197  0.00  0.00    +0.243 C 
ATOM     23  O   THR A   9      10.232  31.346  13.864  0.00  0.00    -0.273 OA
ATOM     24  N   VAL A  10      11.821  29.828  13.330  0.00  0.00    -0.298 N 
ATOM     25  H   VAL A  10      12.615  29.595  12.700  0.00  0.00    +0.150 HD
BRANCH  24  26
ATOM     26  CA  VAL A  10      11.404  28.851  14.330  0.00  0.00    +0.137 C 
BRANCH  26  27
ATOM     27  CB  VAL A  10      10.859  27.543  13.648  0.00  0.00    +0.026 C 
ATOM     28  CG2 VAL A  10      10.125  26.676  14.659  0.00  0.00    +0.002 C 
ATOM     29  CG1 VAL A  10       9.947  27.889  12.471  0.00  0.00    +0.002 C 
ENDBRANCH  26  27
BRANCH  26  30
ATOM     30  C   VAL A  10      12.571  28.501  15.254  0.00  0.00    +0.227 C 
ATOM     31  O   VAL A  10      13.635  28.065  14.799  0.00  0.00    -0.286 OA
ENDBRANCH  26  30
ENDBRANCH  24  26
ENDBRANCH  21  22
BRANCH  21  32
ATOM     32  CB  THR A   9      12.308  33.251  12.626  0.00  0.00    +0.137 C 
ATOM     33  CG2 THR A   9      13.400  33.017  13.652  0.00  0.00    +0.034 C 
BRANCH  32  34
ATOM     34  OG1 THR A   9      12.833  34.014  11.534  0.00  0.00    -0.382 OA
ATOM     35  HG1 THR A   9      12.110  34.198  10.884  0.00  0.00    +0.210 HD
ENDBRANCH  32  34
ENDBRANCH  21  32
ENDBRANCH  18  21
ENDBRANCH  16  17
BRANCH  16  36
ATOM     36  CB  ASP A   8       7.945  31.336  10.299  0.00  0.00    +0.143 C 
BRANCH  36  37
ATOM     37  CG  ASP A   8       6.610  31.151   9.587  0.00  0.00    +0.367 C 
ATOM     38  OD2 ASP A   8       6.189  29.986   9.425  0.00  0.00    -0.246 OA
ATOM     39  OD1 ASP A   8       5.976  32.158   9.214  0.00  0.00    -0.246 OA
ENDBRANCH  36  37
ENDBRANCH  16  36
ENDBRANCH  13  16
ENDBRANCH  11  12
BRANCH  11  40
ATOM     40  CB  ASP A   7       7.137  31.421   5.521  0.00  0.00    +0.143 C 
BRANCH  40  41
ATOM     41  CG  ASP A   7       6.722  30.813   4.215  0.00  0.00    +0.367 C 
ATOM     42  OD2 ASP A   7       5.623  30.222   4.202  0.00  0.00    -0.246 OA
ATOM     43  OD1 ASP A   7       7.454  30.931   3.209  0.00  0.00    -0.246 OA
ENDBRANCH  40  41
ENDBRANCH  11  40
ENDBRANCH   8  11
ENDBRANCH   5   7
ENDBRANCH   2   5
BRANCH   1  44
ATOM     44  CA  GLY A   5      13.270  28.077   2.292  0.00  0.00    +0.176 C 
BRANCH  44  46
ATOM     45  C   THR A   4      14.477  30.173   2.247  0.00  0.00    +0.243 C 
ATOM     46  N   GLY A   5      14.434  28.890   2.605  0.00  0.00    -0.295 N 
ATOM     47  H   GLY A   5      15.238  28.468   3.111  0.00  0.00    +0.150 HD
ATOM     48  O   THR A   4      13.564  30.723   1.626  0.00  0.00    -0.273 OA
BRANCH  45  49
ATOM     49  CA  THR A   4      15.740  30.960   2.612  0.00  0.00    +0.176 C 
BRANCH  49  52
ATOM     50  C   ASP A   3      16.150  30.106   4.844  0.00  0.00    +0.241 C 
ATOM     51  O   ASP A   3      15.031  30.463   5.207  0.00  0.00    -0.273 OA
ATOM     52  N   THR A   4      16.570  30.259   3.593  0.00  0.00    -0.295 N 
ATOM     53  H   THR A   4      17.495  29.878   3.309  0.00  0.00    +0.150 HD
BRANCH  50  54
ATOM     54  CA  ASP A   3      17.054  29.343   5.812  0.00  0.00    +0.160 C 
BRANCH  54  56
ATOM     55  C   LEU A   2      19.260  30.123   6.537  0.00  0.00    +0.241 C 
ATOM     56  N   ASP A   3      17.939  30.130   6.657  0.00  0.00    -0.297 N 
ATOM     57  H   ASP A   3      17.514  30.729   7.393  0.00  0.00    +0.150 HD
ATOM     58  O   LEU A   2      19.855  29.553   5.622  0.00  0.00    -0.273 OA
BRANCH  55  59
ATOM     59  CA  LEU A   2      20.016  30.919   7.596  0.00  0.00    +0.149 C 
BRANCH  59  62
ATOM     60  C   LEU A   1      19.815  29.270   9.367  0.00  0.00    +0.238 C 
ATOM     61  O   LEU A   1      18.624  29.555   9.530  0.00  0.00    -0.274 OA
ATOM     62  N   LEU A   2      20.576  29.892   8.473  0.00  0.00    -0.297 N 
ATOM     63  H   LEU A   2      21.583  29.645   8.396  0.00  0.00    +0.150 HD
BRANCH  60  64
ATOM     64  CA  LEU A   1      20.476  28.173  10.211  0.00  0.00    +0.145 C 
BRANCH  64  65
ATOM     65  N   LEU A   1      20.237  28.353  11.630  0.00  0.00    -0.238 NA
ATOM     66  H   LEU A   1      19.338  28.011  12.025  0.00  0.00    +0.142 HD
ENDBRANCH  64  65
BRANCH  64  67
ATOM     67  CB  LEU A   1      19.901  26.818   9.807  0.00  0.00    +0.026 C 
BRANCH  67  68
ATOM     68  CG  LEU A   1      20.073  26.367   8.364  0.00  0.00    +0.002 C 
ATOM     69  CD2 LEU A   1      21.525  25.955   8.122  0.00  0.00    +0.000 C 
ATOM     70  CD1 LEU A   1      19.115  25.213   8.110  0.00  0.00    +0.000 C 
ENDBRANCH  67  68
ENDBRANCH  64  67
ENDBRANCH  60  64
ENDBRANCH  59  62
BRANCH  59  71
ATOM     71  CB  LEU A   2      21.121  31.782   6.978  0.00  0.00    +0.029 C 
BRANCH  71  72
ATOM     72  CG  LEU A   2      21.987  32.536   7.988  0.00  0.00    +0.002 C 
ATOM     73  CD2 LEU A   2      21.118  33.366   8.919  0.00  0.00    +0.000 C 
ATOM     74  CD1 LEU A   2      22.970  33.429   7.250  0.00  0.00    +0.000 C 
ENDBRANCH  71  72
ENDBRANCH  59  71
ENDBRANCH  55  59
ENDBRANCH  54  56
BRANCH  54  75
ATOM     75  CB  ASP A   3      16.192  28.527   6.778  0.00  0.00    +0.143 C 
BRANCH  75  76
ATOM     76  CG  ASP A   3      15.491  27.364   6.131  0.00  0.00    +0.367 C 
ATOM     77  OD2 ASP A   3      14.999  26.534   6.915  0.00  0.00    -0.246 OA
ATOM     78  OD1 ASP A   3      15.413  27.271   4.884  0.00  0.00    -0.246 OA
ENDBRANCH  75  76
ENDBRANCH  54  75
ENDBRANCH  50  54
ENDBRANCH  49  52
BRANCH  49  79
ATOM     79  CB  THR A   4      16.491  31.246   1.312  0.00  0.00    +0.137 C 
ATOM     80  CG2 THR A   4      17.704  32.128   1.569  0.00  0.00    +0.034 C 
BRANCH  79  81
ATOM     81  OG1 THR A   4      16.917  30.009   0.732  0.00  0.00    -0.382 OA
ATOM     82  HG1 THR A   4      16.126  29.445   0.542  0.00  0.00    +0.210 HD
ENDBRANCH  79  81
ENDBRANCH  49  79
ENDBRANCH  45  49
ENDBRANCH  44  46
ENDBRANCH   1  44
TORSDOF 35
REMARK  Name = ../refined-set-2016/1a30/1a30_pocket.pdb
REMARK  188 active torsions:
REMARK  status: ('A' for Active; 'I' for Inactive)
REMARK    1  A    between atoms: _1  and  _3
REMARK    2  A    between atoms: _3  and  _4
REMARK    3  A    between atoms: _3  and  _6
REMARK    4  A    between atoms: _6  and  _7
REMARK    5  A    between atoms: _10  and  _12
REMARK    6  A    between atoms: _12  and  _13
REMARK    7  A    between atoms: _12  and  _15
REMARK    8  A    between atoms: _15  and  _16
REMARK    9  A    between atoms: _19  and  _21
REMARK   10  A    between atoms: _21  and  _22
REMARK   11  A    between atoms: _21  and  _24
REMARK   12  A    between atoms: _24  and  _25
REMARK   13  A    between atoms: _28  and  _30
REMARK   14  A    between atoms: _30  and  _31
REMARK   15  A    between atoms: _30  and  _33
REMARK   16  A    between atoms: _33  and  _34
REMARK   17  A    between atoms: _37  and  _39
REMARK   18  A    between atoms: _39  and  _40
REMARK   19  A    between atoms: _42  and  _44
REMARK   20  A    between atoms: _44  and  _45
REMARK   21  A    between atoms: _48  and  _50
REMARK   22  A    between atoms: _50  and  _51
REMARK   23  A    between atoms: _50  and  _53
REMARK   24  A    between atoms: _53  and  _54
REMARK   25  A    between atoms: _57  and  _59
REMARK   26  A    between atoms: _59  and  _60
REMARK   27  A    between atoms: _59  and  _62
REMARK   28  A    between atoms: _62  and  _63
REMARK   29  A    between atoms: _66  and  _68
REMARK   30  A    between atoms: _68  and  _69
REMARK   31  A    between atoms: _68  and  _71
REMARK   32  A    between atoms: _71  and  _72
REMARK   33  A    between atoms: _75  and  _77
REMARK   34  A    between atoms: _77  and  _78
REMARK   35  A    between atoms: _77  and  _80
REMARK   36  A    between atoms: _83  and  _85
REMARK   37  A    between atoms: _85  and  _86
REMARK   38  A    between atoms: _85  and  _88
REMARK   39  A    between atoms: _88  and  _89
REMARK   40  A    between atoms: _89  and  _90
REMARK   41  A    between atoms: _90  and  _91
REMARK   42  A    between atoms: _91  and  _92
REMARK   43  A    between atoms: _96  and  _98
REMARK   44  A    between atoms: _98  and  _99
REMARK   45  A    between atoms: _98  and  _101
REMARK   46  A    between atoms: _101  and  _102
REMARK   47  A    between atoms: _102  and  _103
REMARK   48  A    between atoms: _105  and  _107
REMARK   49  A    between atoms: _107  and  _108
REMARK   50  A    between atoms: _107  and  _110
REMARK   51  A    between atoms: _110  and  _111
REMARK   52  A    between atoms: _114  and  _116
REMARK   53  A    between atoms: _116  and  _117
REMARK   54  A    between atoms: _119  and  _121
REMARK   55  A    between atoms: _121  and  _122
REMARK   56  A    between atoms: _124  and  _126
REMARK   57  A    between atoms: _126  and  _127
REMARK   58  A    between atoms: _126  and  _129
REMARK   59  A    between atoms: _129  and  _130
REMARK   60  A    between atoms: _133  and  _135
REMARK   61  A    between atoms: _135  and  _136
REMARK   62  A    between atoms: _138  and  _140
REMARK   63  A    between atoms: _140  and  _141
REMARK   64  A    between atoms: _143  and  _145
REMARK   65  A    between atoms: _145  and  _146
REMARK   66  A    between atoms: _145  and  _148
REMARK   67  A    between atoms: _148  and  _149
REMARK   68  A    between atoms: _155  and  _157
REMARK   69  A    between atoms: _157  and  _158
REMARK   70  A    between atoms: _157  and  _160
REMARK   71  A    between atoms: _160  and  _161
REMARK   72  A    between atoms: _164  and  _166
REMARK   73  A    between atoms: _166  and  _167
REMARK   74  A    between atoms: _166  and  _169
REMARK   75  A    between atoms: _172  and  _174
REMARK   76  A    between atoms: _174  and  _175
REMARK   77  A    between atoms: _174  and  _177
REMARK   78  A    between atoms: _177  and  _178
REMARK   79  A    between atoms: _181  and  _183
REMARK   80  A    between atoms: _183  and  _184
REMARK   81  A    between atoms: _183  and  _186
REMARK   82  A    between atoms: _186  and  _187
REMARK   83  A    between atoms: _191  and  _192
REMARK   84  A    between atoms: _197  and  _199
REMARK   85  A    between atoms: _199  and  _200
REMARK   86  A    between atoms: _199  and  _202
REMARK   87  A    between atoms: _202  and  _203
REMARK   88  A    between atoms: _206  and  _208
REMARK   89  A    between atoms: _208  and  _209
REMARK   90  A    between atoms: _208  and  _211
REMARK   91  A    between atoms: _211  and  _212
REMARK   92  A    between atoms: _215  and  _217
REMARK   93  A    between atoms: _217  and  _218
REMARK   94  A    between atoms: _220  and  _222
REMARK   95  A    between atoms: _222  and  _223
REMARK   96  A    between atoms: _222  and  _225
REMARK   97  A    between atoms: _225  and  _226
REMARK   98  A    between atoms: _226  and  _227
REMARK   99  A    between atoms: _227  and  _228
REMARK  100  A    between atoms: _237  and  _239
REMARK  101  A    between atoms: _239  and  _240
REMARK  102  A    between atoms: _239  and  _242
REMARK  103  A    between atoms: _242  and  _243
REMARK  104  A    between atoms: _248  and  _250
REMARK  105  A    between atoms: _250  and  _251
REMARK  106  A    between atoms: _250  and  _253
REMARK  107  A    between atoms: _253  and  _254
REMARK  108  A    between atoms: _254  and  _255
REMARK  109  A    between atoms: _255  and  _256
REMARK  110  A    between atoms: _266  and  _267
REMARK  111  A    between atoms: _272  and  _274
REMARK  112  A    between atoms: _274  and  _275
REMARK  113  A    between atoms: _274  and  _277
REMARK  114  A    between atoms: _277  and  _278
REMARK  115  A    between atoms: _281  and  _283
REMARK  116  A    between atoms: _283  and  _284
REMARK  117  A    between atoms: _283  and  _286
REMARK  118  A    between atoms: _286  and  _287
REMARK  119  A    between atoms: _290  and  _292
REMARK  120  A    between atoms: _292  and  _293
REMARK  121  A    between atoms: _292  and  _295
REMARK  122  A    between atoms: _295  and  _296
REMARK  123  A    between atoms: _299  and  _301
REMARK  124  A    between atoms: _301  and  _302
REMARK  125  A    between atoms: _301  and  _304
REMARK  126  A    between atoms: _304  and  _305
REMARK  127  A    between atoms: _308  and  _310
REMARK  128  A    between atoms: _310  and  _311
REMARK  129  A    between atoms: _310  and  _313
REMARK  130  A    between atoms: _313  and  _314
REMARK  131  A    between atoms: _317  and  _319
REMARK  132  A    between atoms: _319  and  _320
REMARK  133  A    between atoms: _322  and  _324
REMARK  134  A    between atoms: _324  and  _325
REMARK  135  A    between atoms: _328  and  _330
REMARK  136  A    between atoms: _330  and  _331
REMARK  137  A    between atoms: _330  and  _333
REMARK  138  A    between atoms: _333  and  _334
REMARK  139  A    between atoms: _337  and  _339
REMARK  140  A    between atoms: _339  and  _340
REMARK  141  A    between atoms: _339  and  _342
REMARK  142  A    between atoms: _342  and  _343
REMARK  143  A    between atoms: _346  and  _348
REMARK  144  A    between atoms: _348  and  _349
REMARK  145  A    between atoms: _348  and  _351
REMARK  146  A    between atoms: _354  and  _356
REMARK  147  A    between atoms: _356  and  _357
REMARK  148  A    between atoms: _356  and  _359
REMARK  149  A    between atoms: _359  and  _360
REMARK  150  A    between atoms: _363  and  _365
REMARK  151  A    between atoms: _365  and  _366
REMARK  152  A    between atoms: _368  and  _370
REMARK  153  A    between atoms: _370  and  _371
REMARK  154  A    between atoms: _373  and  _375
REMARK  155  A    between atoms: _375  and  _376
REMARK  156  A    between atoms: _375  and  _378
REMARK  157  A    between atoms: _378  and  _379
REMARK  158  A    between atoms: _382  and  _384
REMARK  159  A    between atoms: _384  and  _385
REMARK  160  A    between atoms: _387  and  _389
REMARK  161  A    between atoms: _389  and  _390
REMARK  162  A    between atoms: _392  and  _394
REMARK  163  A    between atoms: _394  and  _395
REMARK  164  A    between atoms: _394  and  _397
REMARK  165  A    between atoms: _397  and  _398
REMARK  166  A    between atoms: _402  and  _403
REMARK  167  A    between atoms: _408  and  _410
REMARK  168  A    between atoms: _410  and  _411
REMARK  169  A    between atoms: _410  and  _413
REMARK  170  A    between atoms: _413  and  _414
REMARK  171  A    between atoms: _418  and  _419
REMARK  172  A    between atoms: _424  and  _426
REMARK  173  A    between atoms: _426  and  _427
REMARK  174  A    between atoms: _426  and  _429
REMARK  175  A    between atoms: _432  and  _434
REMARK  176  A    between atoms: _434  and  _435
REMARK  177  A    between atoms: _434  and  _437
REMARK  178  A    between atoms: _437  and  _438
REMARK  179  A    between atoms: _443  and  _445
REMARK  180  A    between atoms: _445  and  _446
REMARK  181  A    between atoms: _445  and  _448
REMARK  182  A    between atoms: _448  and  _449
REMARK  183  A    between atoms: _452  and  _454
REMARK  184  A    between atoms: _454  and  _455
REMARK  185  A    between atoms: _454  and  _457
REMARK  186  A    between atoms: _457  and  _458
REMARK  187  A    between atoms: _461  and  _463
REMARK  188  A    between atoms: _463  and  _464
REMARK                            x       y       z     vdW  Elec       q    Type
REMARK                         _______ _______ _______ _____ _____    ______ ____
ROOT
ATOM      1  C   GLY A   5       7.648  19.850   5.421  0.00  0.00    +0.243 C 
ATOM      2  O   GLY A   5       6.704  19.057   5.460  0.00  0.00    -0.273 OA
ATOM      3  N   ILE A   6       8.903  19.470   5.202  0.00  0.00    -0.297 N 
ATOM      4  H   ILE A   6       9.657  20.186   5.198  0.00  0.00    +0.150 HD
ENDROOT
BRANCH   3   5
ATOM      5  CA  ILE A   6       9.246  18.070   4.967  0.00  0.00    +0.149 C 
BRANCH   5   6
ATOM      6  C   ILE A   6       8.864  17.246   6.196  0.00  0.00    +0.241 C 
ATOM      7  O   ILE A   6       9.222  17.593   7.325  0.00  0.00    -0.273 OA
ATOM      8  N   GLY A   7       8.087  16.192   5.984  0.00  0.00    -0.295 N 
ATOM      9  H   GLY A   7       7.766  15.969   5.020  0.00  0.00    +0.150 HD
BRANCH   8  10
ATOM     10  CA  GLY A   7       7.684  15.349   7.096  0.00  0.00    +0.176 C 
BRANCH  10  11
ATOM     11  C   GLY A   7       6.380  15.709   7.782  0.00  0.00    +0.243 C 
ATOM     12  O   GLY A   7       5.953  15.005   8.697  0.00  0.00    -0.273 OA
ATOM     13  N   GLY A   8       5.756  16.807   7.379  0.00  0.00    -0.295 N 
ATOM     14  H   GLY A   8       6.166  17.400   6.629  0.00  0.00    +0.150 HD
BRANCH  13  15
ATOM     15  CA  GLY A   8       4.493  17.173   7.996  0.00  0.00    +0.176 C 
BRANCH  15  16
ATOM     16  C   GLY A   8       4.479  18.488   8.742  0.00  0.00    +0.243 C 
ATOM     17  N   PHE A   9       3.592  18.581   9.727  0.00  0.00    -0.297 N 
ATOM     18  H   PHE A   9       2.992  17.759   9.940  0.00  0.00    +0.150 HD
ATOM     19  O   GLY A   8       5.269  19.390   8.448  0.00  0.00    -0.273 OA
BRANCH  17  20
ATOM     20  CA  PHE A   9       3.429  19.794  10.520  0.00  0.00    +0.153 C 
BRANCH  20  21
ATOM     21  C   PHE A   9       3.811  19.619  11.973  0.00  0.00    +0.241 C 
ATOM     22  N   ILE A  10       4.021  20.736  12.660  0.00  0.00    -0.298 N 
ATOM     23  H   ILE A  10       3.977  21.643  12.152  0.00  0.00    +0.150 HD
ATOM     24  O   PHE A   9       3.906  18.501  12.453  0.00  0.00    -0.273 OA
BRANCH  22  25
ATOM     25  CA  ILE A  10       4.312  20.757  14.099  0.00  0.00    +0.137 C 
BRANCH  25  26
ATOM     26  C   ILE A  10       3.570  21.975  14.666  0.00  0.00    +0.227 C 
ATOM     27  O   ILE A  10       3.347  22.965  13.960  0.00  0.00    -0.286 OA
ENDBRANCH  25  26
BRANCH  25  28
ATOM     28  CB  ILE A  10       5.838  20.853  14.452  0.00  0.00    +0.026 C 
ATOM     29  CG2 ILE A  10       6.600  19.642  13.902  0.00  0.00    +0.002 C 
BRANCH  28  30
ATOM     30  CG1 ILE A  10       6.439  22.168  13.947  0.00  0.00    +0.002 C 
ATOM     31  CD1 ILE A  10       7.821  22.465  14.506  0.00  0.00    +0.000 C 
ENDBRANCH  28  30
ENDBRANCH  25  28
ENDBRANCH  22  25
ENDBRANCH  20  21
BRANCH  20  32
ATOM     32  CB  PHE A   9       1.961  20.237  10.490  0.00  0.00    +0.055 C 
BRANCH  32  33
ATOM     33  CG  PHE A   9       1.510  20.797   9.170  0.00  0.00    -0.020 A 
ATOM     34  CD2 PHE A   9       1.254  22.157   9.034  0.00  0.00    -0.004 A 
ATOM     35  CE2 PHE A   9       0.806  22.685   7.834  0.00  0.00    -0.000 A 
ATOM     36  CZ  PHE A   9       0.608  21.848   6.751  0.00  0.00    -0.000 A 
ATOM     37  CE1 PHE A   9       0.862  20.484   6.876  0.00  0.00    -0.000 A 
ATOM     38  CD1 PHE A   9       1.311  19.970   8.079  0.00  0.00    -0.004 A 
ENDBRANCH  32  33
ENDBRANCH  20  32
ENDBRANCH  17  20
ENDBRANCH  15  16
ENDBRANCH  13  15
ENDBRANCH  10  11
ENDBRANCH   8  10
ENDBRANCH   5   6
BRANCH   5  39
ATOM     39  CB  ILE A   6      10.765  17.904   4.662  0.00  0.00    +0.027 C 
ATOM     40  CG2 ILE A   6      11.203  16.437   4.762  0.00  0.00    +0.002 C 
BRANCH  39  41
ATOM     41  CG1 ILE A   6      11.077  18.432   3.264  0.00  0.00    +0.002 C 
ATOM     42  CD1 ILE A   6      10.487  17.611   2.178  0.00  0.00    +0.000 C 
ENDBRANCH  39  41
ENDBRANCH   5  39
ENDBRANCH   3   5
BRANCH   1  43
ATOM     43  CA  GLY A   5       7.402  21.323   5.660  0.00  0.00    +0.176 C 
BRANCH  43  45
ATOM     44  C   GLY A   4       5.757  22.575   6.947  0.00  0.00    +0.243 C 
ATOM     45  N   GLY A   5       6.303  21.417   6.600  0.00  0.00    -0.295 N 
ATOM     46  H   GLY A   5       5.928  20.542   7.019  0.00  0.00    +0.150 HD
ATOM     47  O   GLY A   4       6.116  23.671   6.504  0.00  0.00    -0.273 OA
BRANCH  44  48
ATOM     48  CA  GLY A   4       4.615  22.461   7.924  0.00  0.00    +0.176 C 
BRANCH  48  51
ATOM     49  C   ILE A   3       4.095  23.728   9.881  0.00  0.00    +0.241 C 
ATOM     50  O   ILE A   3       4.285  22.743  10.591  0.00  0.00    -0.273 OA
ATOM     51  N   GLY A   4       4.222  23.695   8.562  0.00  0.00    -0.295 N 
ATOM     52  H   GLY A   4       4.041  24.547   7.994  0.00  0.00    +0.150 HD
BRANCH  49  53
ATOM     53  CA  ILE A   3       3.659  25.050  10.496  0.00  0.00    +0.149 C 
BRANCH  53  55
ATOM     54  C   MET A   2       1.548  25.276  11.653  0.00  0.00    +0.241 C 
ATOM     55  N   ILE A   3       2.779  24.782  11.624  0.00  0.00    -0.297 N 
ATOM     56  H   ILE A   3       3.118  24.198  12.415  0.00  0.00    +0.150 HD
ATOM     57  O   MET A   2       1.114  26.022  10.778  0.00  0.00    -0.273 OA
BRANCH  54  58
ATOM     58  CA  MET A   2       0.689  24.926  12.856  0.00  0.00    +0.149 C 
BRANCH  58  61
ATOM     59  C   LYS A   1       0.526  26.559  14.664  0.00  0.00    +0.238 C 
ATOM     60  O   LYS A   1       1.127  25.838  15.455  0.00  0.00    -0.274 OA
ATOM     61  N   MET A   2       0.250  26.195  13.418  0.00  0.00    -0.297 N 
ATOM     62  H   MET A   2      -0.302  26.842  12.819  0.00  0.00    +0.150 HD
BRANCH  59  63
ATOM     63  CA  LYS A   1       0.026  27.933  15.095  0.00  0.00    +0.145 C 
BRANCH  63  64
ATOM     64  N   LYS A   1      -0.108  27.924  16.547  0.00  0.00    -0.238 NA
ATOM     65  H   LYS A   1       0.514  27.299  17.098  0.00  0.00    +0.142 HD
ENDBRANCH  63  64
BRANCH  63  66
ATOM     66  CB  LYS A   1       1.053  29.003  14.684  0.00  0.00    +0.026 C 
BRANCH  66  67
ATOM     67  CG  LYS A   1       1.172  29.277  13.189  0.00  0.00    -0.000 C 
BRANCH  67  68
ATOM     68  CD  LYS A   1       2.290  30.279  12.936  0.00  0.00    -0.024 C 
BRANCH  68  69
ATOM     69  CE  LYS A   1       2.464  30.588  11.456  0.00  0.00    -0.086 C 
BRANCH  69  70
ATOM     70  NZ  LYS A   1       1.389  31.483  10.935  0.00  0.00    +0.380 N 
ATOM     71  HZ1 LYS A   1       1.405  32.382  11.457  0.00  0.00    -0.089 HD
ATOM     72  HZ2 LYS A   1       0.465  31.023  11.063  0.00  0.00    -0.089 HD
ATOM     73  HZ3 LYS A   1       1.551  31.665   9.924  0.00  0.00    -0.089 HD
ENDBRANCH  69  70
ENDBRANCH  68  69
ENDBRANCH  67  68
ENDBRANCH  66  67
ENDBRANCH  63  66
ENDBRANCH  59  63
ENDBRANCH  58  61
BRANCH  58  74
ATOM     74  CB  MET A   2      -0.506  24.095  12.378  0.00  0.00    +0.041 C 
BRANCH  74  75
ATOM     75  CG  MET A   2      -1.263  23.372  13.467  0.00  0.00    +0.060 C 
BRANCH  75  76
ATOM     76  SD  MET A   2      -0.322  21.978  14.120  0.00  0.00    -0.139 S 
ATOM     77  CE  MET A   2      -0.787  20.640  12.954  0.00  0.00    +0.069 C 
ENDBRANCH  75  76
ENDBRANCH  74  75
ENDBRANCH  58  74
ENDBRANCH  54  58
ENDBRANCH  53  55
BRANCH  53  78
ATOM     78  CB  ILE A   3       4.898  25.884  10.909  0.00  0.00    +0.027 C 
ATOM     79  CG2 ILE A   3       4.463  27.284  11.333  0.00  0.00    +0.002 C 
BRANCH  78  80
ATOM     80  CG1 ILE A   3       5.690  25.167  12.005  0.00  0.00    +0.002 C 
ATOM     81  CD1 ILE A   3       6.955  25.893  12.425  0.00  0.00    +0.000 C 
ENDBRANCH  78  80
ENDBRANCH  53  78
ENDBRANCH  49  53
ENDBRANCH  48  51
ENDBRANCH  44  48
ENDBRANCH  43  45
ENDBRANCH   1  43
TORSDOF 36
REMARK  Name = ../refined-set-2016/1a30/1a30_pocket.pdb
REMARK  188 active torsions:
REMARK  status: ('A' for Active; 'I' for Inactive)
REMARK    1  A    between atoms: _1  and  _3
REMARK    2  A    between atoms: _3  and  _4
REMARK    3  A    between atoms: _3  and  _6
REMARK    4  A    between atoms: _6  and  _7
REMARK    5  A    between atoms: _10  and  _12
REMARK    6  A    between atoms: _12  and  _13
REMARK    7  A    between atoms: _12  and  _15
REMARK    8  A    between atoms: _15  and  _16
REMARK    9  A    between atoms: _19  and  _21
REMARK   10  A    between atoms: _21  and  _22
REMARK   11  A    between atoms: _21  and  _24
REMARK   12  A    between atoms: _24  and  _25
REMARK   13  A    between atoms: _28  and  _30
REMARK   14  A    between atoms: _30  and  _31
REMARK   15  A    between atoms: _30  and  _33
REMARK   16  A    between atoms: _33  and  _34
REMARK   17  A    between atoms: _37  and  _39
REMARK   18  A    between atoms: _39  and  _40
REMARK   19  A    between atoms: _42  and  _44
REMARK   20  A    between atoms: _44  and  _45
REMARK   21  A    between atoms: _48  and  _50
REMARK   22  A    between atoms: _50  and  _51
REMARK   23  A    between atoms: _50  and  _53
REMARK   24  A    between atoms: _53  and  _54
REMARK   25  A    between atoms: _57  and  _59
REMARK   26  A    between atoms: _59  and  _60
REMARK   27  A    between atoms: _59  and  _62
REMARK   28  A    between atoms: _62  and  _63
REMARK   29  A    between atoms: _66  and  _68
REMARK   30  A    between atoms: _68  and  _69
REMARK   31  A    between atoms: _68  and  _71
REMARK   32  A    between atoms: _71  and  _72
REMARK   33  A    between atoms: _75  and  _77
REMARK   34  A    between atoms: _77  and  _78
REMARK   35  A    between atoms: _77  and  _80
REMARK   36  A    between atoms: _83  and  _85
REMARK   37  A    between atoms: _85  and  _86
REMARK   38  A    between atoms: _85  and  _88
REMARK   39  A    between atoms: _88  and  _89
REMARK   40  A    between atoms: _89  and  _90
REMARK   41  A    between atoms: _90  and  _91
REMARK   42  A    between atoms: _91  and  _92
REMARK   43  A    between atoms: _96  and  _98
REMARK   44  A    between atoms: _98  and  _99
REMARK   45  A    between atoms: _98  and  _101
REMARK   46  A    between atoms: _101  and  _102
REMARK   47  A    between atoms: _102  and  _103
REMARK   48  A    between atoms: _105  and  _107
REMARK   49  A    between atoms: _107  and  _108
REMARK   50  A    between atoms: _107  and  _110
REMARK   51  A    between atoms: _110  and  _111
REMARK   52  A    between atoms: _114  and  _116
REMARK   53  A    between atoms: _116  and  _117
REMARK   54  A    between atoms: _119  and  _121
REMARK   55  A    between atoms: _121  and  _122
REMARK   56  A    between atoms: _124  and  _126
REMARK   57  A    between atoms: _126  and  _127
REMARK   58  A    between atoms: _126  and  _129
REMARK   59  A    between atoms: _129  and  _130
REMARK   60  A    between atoms: _133  and  _135
REMARK   61  A    between atoms: _135  and  _136
REMARK   62  A    between atoms: _138  and  _140
REMARK   63  A    between atoms: _140  and  _141
REMARK   64  A    between atoms: _143  and  _145
REMARK   65  A    between atoms: _145  and  _146
REMARK   66  A    between atoms: _145  and  _148
REMARK   67  A    between atoms: _148  and  _149
REMARK   68  A    between atoms: _155  and  _157
REMARK   69  A    between atoms: _157  and  _158
REMARK   70  A    between atoms: _157  and  _160
REMARK   71  A    between atoms: _160  and  _161
REMARK   72  A    between atoms: _164  and  _166
REMARK   73  A    between atoms: _166  and  _167
REMARK   74  A    between atoms: _166  and  _169
REMARK   75  A    between atoms: _172  and  _174
REMARK   76  A    between atoms: _174  and  _175
REMARK   77  A    between atoms: _174  and  _177
REMARK   78  A    between atoms: _177  and  _178
REMARK   79  A    between atoms: _181  and  _183
REMARK   80  A    between atoms: _183  and  _184
REMARK   81  A    between atoms: _183  and  _186
REMARK   82  A    between atoms: _186  and  _187
REMARK   83  A    between atoms: _191  and  _192
REMARK   84  A    between atoms: _197  and  _199
REMARK   85  A    between atoms: _199  and  _200
REMARK   86  A    between atoms: _199  and  _202
REMARK   87  A    between atoms: _202  and  _203
REMARK   88  A    between atoms: _206  and  _208
REMARK   89  A    between atoms: _208  and  _209
REMARK   90  A    between atoms: _208  and  _211
REMARK   91  A    between atoms: _211  and  _212
REMARK   92  A    between atoms: _215  and  _217
REMARK   93  A    between atoms: _217  and  _218
REMARK   94  A    between atoms: _220  and  _222
REMARK   95  A    between atoms: _222  and  _223
REMARK   96  A    between atoms: _222  and  _225
REMARK   97  A    between atoms: _225  and  _226
REMARK   98  A    between atoms: _226  and  _227
REMARK   99  A    between atoms: _227  and  _228
REMARK  100  A    between atoms: _237  and  _239
REMARK  101  A    between atoms: _239  and  _240
REMARK  102  A    between atoms: _239  and  _242
REMARK  103  A    between atoms: _242  and  _243
REMARK  104  A    between atoms: _248  and  _250
REMARK  105  A    between atoms: _250  and  _251
REMARK  106  A    between atoms: _250  and  _253
REMARK  107  A    between atoms: _253  and  _254
REMARK  108  A    between atoms: _254  and  _255
REMARK  109  A    between atoms: _255  and  _256
REMARK  110  A    between atoms: _266  and  _267
REMARK  111  A    between atoms: _272  and  _274
REMARK  112  A    between atoms: _274  and  _275
REMARK  113  A    between atoms: _274  and  _277
REMARK  114  A    between atoms: _277  and  _278
REMARK  115  A    between atoms: _281  and  _283
REMARK  116  A    between atoms: _283  and  _284
REMARK  117  A    between atoms: _283  and  _286
REMARK  118  A    between atoms: _286  and  _287
REMARK  119  A    between atoms: _290  and  _292
REMARK  120  A    between atoms: _292  and  _293
REMARK  121  A    between atoms: _292  and  _295
REMARK  122  A    between atoms: _295  and  _296
REMARK  123  A    between atoms: _299  and  _301
REMARK  124  A    between atoms: _301  and  _302
REMARK  125  A    between atoms: _301  and  _304
REMARK  126  A    between atoms: _304  and  _305
REMARK  127  A    between atoms: _308  and  _310
REMARK  128  A    between atoms: _310  and  _311
REMARK  129  A    between atoms: _310  and  _313
REMARK  130  A    between atoms: _313  and  _314
REMARK  131  A    between atoms: _317  and  _319
REMARK  132  A    between atoms: _319  and  _320
REMARK  133  A    between atoms: _322  and  _324
REMARK  134  A    between atoms: _324  and  _325
REMARK  135  A    between atoms: _328  and  _330
REMARK  136  A    between atoms: _330  and  _331
REMARK  137  A    between atoms: _330  and  _333
REMARK  138  A    between atoms: _333  and  _334
REMARK  139  A    between atoms: _337  and  _339
REMARK  140  A    between atoms: _339  and  _340
REMARK  141  A    between atoms: _339  and  _342
REMARK  142  A    between atoms: _342  and  _343
REMARK  143  A    between atoms: _346  and  _348
REMARK  144  A    between atoms: _348  and  _349
REMARK  145  A    between atoms: _348  and  _351
REMARK  146  A    between atoms: _354  and  _356
REMARK  147  A    between atoms: _356  and  _357
REMARK  148  A    between atoms: _356  and  _359
REMARK  149  A    between atoms: _359  and  _360
REMARK  150  A    between atoms: _363  and  _365
REMARK  151  A    between atoms: _365  and  _366
REMARK  152  A    between atoms: _368  and  _370
REMARK  153  A    between atoms: _370  and  _371
REMARK  154  A    between atoms: _373  and  _375
REMARK  155  A    between atoms: _375  and  _376
REMARK  156  A    between atoms: _375  and  _378
REMARK  157  A    between atoms: _378  and  _379
REMARK  158  A    between atoms: _382  and  _384
REMARK  159  A    between atoms: _384  and  _385
REMARK  160  A    between atoms: _387  and  _389
REMARK  161  A    between atoms: _389  and  _390
REMARK  162  A    between atoms: _392  and  _394
REMARK  163  A    between atoms: _394  and  _395
REMARK  164  A    between atoms: _394  and  _397
REMARK  165  A    between atoms: _397  and  _398
REMARK  166  A    between atoms: _402  and  _403
REMARK  167  A    between atoms: _408  and  _410
REMARK  168  A    between atoms: _410  and  _411
REMARK  169  A    between atoms: _410  and  _413
REMARK  170  A    between atoms: _413  and  _414
REMARK  171  A    between atoms: _418  and  _419
REMARK  172  A    between atoms: _424  and  _426
REMARK  173  A    between atoms: _426  and  _427
REMARK  174  A    between atoms: _426  and  _429
REMARK  175  A    between atoms: _432  and  _434
REMARK  176  A    between atoms: _434  and  _435
REMARK  177  A    between atoms: _434  and  _437
REMARK  178  A    between atoms: _437  and  _438
REMARK  179  A    between atoms: _443  and  _445
REMARK  180  A    between atoms: _445  and  _446
REMARK  181  A    between atoms: _445  and  _448
REMARK  182  A    between atoms: _448  and  _449
REMARK  183  A    between atoms: _452  and  _454
REMARK  184  A    between atoms: _454  and  _455
REMARK  185  A    between atoms: _454  and  _457
REMARK  186  A    between atoms: _457  and  _458
REMARK  187  A    between atoms: _461  and  _463
REMARK  188  A    between atoms: _463  and  _464
REMARK                            x       y       z     vdW  Elec       q    Type
REMARK                         _______ _______ _______ _____ _____    ______ ____
ROOT
ATOM      1  CA  VAL A   1       4.255  26.071  17.726  0.00  0.00    +0.133 C 
ENDROOT
BRANCH   1   2
ATOM      2  CB  VAL A   1       5.226  26.629  16.656  0.00  0.00    +0.023 C 
ATOM      3  CG2 VAL A   1       6.050  25.492  16.040  0.00  0.00    +0.002 C 
ATOM      4  CG1 VAL A   1       4.445  27.372  15.569  0.00  0.00    +0.002 C 
ENDBRANCH   1   2
BRANCH   1   5
ATOM      5  N   VAL A   1       3.323  25.132  17.119  0.00  0.00    -0.239 NA
ATOM      6  H   VAL A   1       2.536  25.498  16.547  0.00  0.00    +0.142 HD
ENDBRANCH   1   5
BRANCH   1   7
ATOM      7  C   VAL A   1       3.538  27.242  18.401  0.00  0.00    +0.224 C 
ATOM      8  O   VAL A   1       2.336  27.440  18.222  0.00  0.00    -0.287 OA
ENDBRANCH   1   7
TORSDOF 3
REMARK  Name = ../refined-set-2016/1a30/1a30_pocket.pdb
REMARK  188 active torsions:
REMARK  status: ('A' for Active; 'I' for Inactive)
REMARK    1  A    between atoms: _1  and  _3
REMARK    2  A    between atoms: _3  and  _4
REMARK    3  A    between atoms: _3  and  _6
REMARK    4  A    between atoms: _6  and  _7
REMARK    5  A    between atoms: _10  and  _12
REMARK    6  A    between atoms: _12  and  _13
REMARK    7  A    between atoms: _12  and  _15
REMARK    8  A    between atoms: _15  and  _16
REMARK    9  A    between atoms: _19  and  _21
REMARK   10  A    between atoms: _21  and  _22
REMARK   11  A    between atoms: _21  and  _24
REMARK   12  A    between atoms: _24  and  _25
REMARK   13  A    between atoms: _28  and  _30
REMARK   14  A    between atoms: _30  and  _31
REMARK   15  A    between atoms: _30  and  _33
REMARK   16  A    between atoms: _33  and  _34
REMARK   17  A    between atoms: _37  and  _39
REMARK   18  A    between atoms: _39  and  _40
REMARK   19  A    between atoms: _42  and  _44
REMARK   20  A    between atoms: _44  and  _45
REMARK   21  A    between atoms: _48  and  _50
REMARK   22  A    between atoms: _50  and  _51
REMARK   23  A    between atoms: _50  and  _53
REMARK   24  A    between atoms: _53  and  _54
REMARK   25  A    between atoms: _57  and  _59
REMARK   26  A    between atoms: _59  and  _60
REMARK   27  A    between atoms: _59  and  _62
REMARK   28  A    between atoms: _62  and  _63
REMARK   29  A    between atoms: _66  and  _68
REMARK   30  A    between atoms: _68  and  _69
REMARK   31  A    between atoms: _68  and  _71
REMARK   32  A    between atoms: _71  and  _72
REMARK   33  A    between atoms: _75  and  _77
REMARK   34  A    between atoms: _77  and  _78
REMARK   35  A    between atoms: _77  and  _80
REMARK   36  A    between atoms: _83  and  _85
REMARK   37  A    between atoms: _85  and  _86
REMARK   38  A    between atoms: _85  and  _88
REMARK   39  A    between atoms: _88  and  _89
REMARK   40  A    between atoms: _89  and  _90
REMARK   41  A    between atoms: _90  and  _91
REMARK   42  A    between atoms: _91  and  _92
REMARK   43  A    between atoms: _96  and  _98
REMARK   44  A    between atoms: _98  and  _99
REMARK   45  A    between atoms: _98  and  _101
REMARK   46  A    between atoms: _101  and  _102
REMARK   47  A    between atoms: _102  and  _103
REMARK   48  A    between atoms: _105  and  _107
REMARK   49  A    between atoms: _107  and  _108
REMARK   50  A    between atoms: _107  and  _110
REMARK   51  A    between atoms: _110  and  _111
REMARK   52  A    between atoms: _114  and  _116
REMARK   53  A    between atoms: _116  and  _117
REMARK   54  A    between atoms: _119  and  _121
REMARK   55  A    between atoms: _121  and  _122
REMARK   56  A    between atoms: _124  and  _126
REMARK   57  A    between atoms: _126  and  _127
REMARK   58  A    between atoms: _126  and  _129
REMARK   59  A    between atoms: _129  and  _130
REMARK   60  A    between atoms: _133  and  _135
REMARK   61  A    between atoms: _135  and  _136
REMARK   62  A    between atoms: _138  and  _140
REMARK   63  A    between atoms: _140  and  _141
REMARK   64  A    between atoms: _143  and  _145
REMARK   65  A    between atoms: _145  and  _146
REMARK   66  A    between atoms: _145  and  _148
REMARK   67  A    between atoms: _148  and  _149
REMARK   68  A    between atoms: _155  and  _157
REMARK   69  A    between atoms: _157  and  _158
REMARK   70  A    between atoms: _157  and  _160
REMARK   71  A    between atoms: _160  and  _161
REMARK   72  A    between atoms: _164  and  _166
REMARK   73  A    between atoms: _166  and  _167
REMARK   74  A    between atoms: _166  and  _169
REMARK   75  A    between atoms: _172  and  _174
REMARK   76  A    between atoms: _174  and  _175
REMARK   77  A    between atoms: _174  and  _177
REMARK   78  A    between atoms: _177  and  _178
REMARK   79  A    between atoms: _181  and  _183
REMARK   80  A    between atoms: _183  and  _184
REMARK   81  A    between atoms: _183  and  _186
REMARK   82  A    between atoms: _186  and  _187
REMARK   83  A    between atoms: _191  and  _192
REMARK   84  A    between atoms: _197  and  _199
REMARK   85  A    between atoms: _199  and  _200
REMARK   86  A    between atoms: _199  and  _202
REMARK   87  A    between atoms: _202  and  _203
REMARK   88  A    between atoms: _206  and  _208
REMARK   89  A    between atoms: _208  and  _209
REMARK   90  A    between atoms: _208  and  _211
REMARK   91  A    between atoms: _211  and  _212
REMARK   92  A    between atoms: _215  and  _217
REMARK   93  A    between atoms: _217  and  _218
REMARK   94  A    between atoms: _220  and  _222
REMARK   95  A    between atoms: _222  and  _223
REMARK   96  A    between atoms: _222  and  _225
REMARK   97  A    between atoms: _225  and  _226
REMARK   98  A    between atoms: _226  and  _227
REMARK   99  A    between atoms: _227  and  _228
REMARK  100  A    between atoms: _237  and  _239
REMARK  101  A    between atoms: _239  and  _240
REMARK  102  A    between atoms: _239  and  _242
REMARK  103  A    between atoms: _242  and  _243
REMARK  104  A    between atoms: _248  and  _250
REMARK  105  A    between atoms: _250  and  _251
REMARK  106  A    between atoms: _250  and  _253
REMARK  107  A    between atoms: _253  and  _254
REMARK  108  A    between atoms: _254  and  _255
REMARK  109  A    between atoms: _255  and  _256
REMARK  110  A    between atoms: _266  and  _267
REMARK  111  A    between atoms: _272  and  _274
REMARK  112  A    between atoms: _274  and  _275
REMARK  113  A    between atoms: _274  and  _277
REMARK  114  A    between atoms: _277  and  _278
REMARK  115  A    between atoms: _281  and  _283
REMARK  116  A    between atoms: _283  and  _284
REMARK  117  A    between atoms: _283  and  _286
REMARK  118  A    between atoms: _286  and  _287
REMARK  119  A    between atoms: _290  and  _292
REMARK  120  A    between atoms: _292  and  _293
REMARK  121  A    between atoms: _292  and  _295
REMARK  122  A    between atoms: _295  and  _296
REMARK  123  A    between atoms: _299  and  _301
REMARK  124  A    between atoms: _301  and  _302
REMARK  125  A    between atoms: _301  and  _304
REMARK  126  A    between atoms: _304  and  _305
REMARK  127  A    between atoms: _308  and  _310
REMARK  128  A    between atoms: _310  and  _311
REMARK  129  A    between atoms: _310  and  _313
REMARK  130  A    between atoms: _313  and  _314
REMARK  131  A    between atoms: _317  and  _319
REMARK  132  A    between atoms: _319  and  _320
REMARK  133  A    between atoms: _322  and  _324
REMARK  134  A    between atoms: _324  and  _325
REMARK  135  A    between atoms: _328  and  _330
REMARK  136  A    between atoms: _330  and  _331
REMARK  137  A    between atoms: _330  and  _333
REMARK  138  A    between atoms: _333  and  _334
REMARK  139  A    between atoms: _337  and  _339
REMARK  140  A    between atoms: _339  and  _340
REMARK  141  A    between atoms: _339  and  _342
REMARK  142  A    between atoms: _342  and  _343
REMARK  143  A    between atoms: _346  and  _348
REMARK  144  A    between atoms: _348  and  _349
REMARK  145  A    between atoms: _348  and  _351
REMARK  146  A    between atoms: _354  and  _356
REMARK  147  A    between atoms: _356  and  _357
REMARK  148  A    between atoms: _356  and  _359
REMARK  149  A    between atoms: _359  and  _360
REMARK  150  A    between atoms: _363  and  _365
REMARK  151  A    between atoms: _365  and  _366
REMARK  152  A    between atoms: _368  and  _370
REMARK  153  A    between atoms: _370  and  _371
REMARK  154  A    between atoms: _373  and  _375
REMARK  155  A    between atoms: _375  and  _376
REMARK  156  A    between atoms: _375  and  _378
REMARK  157  A    between atoms: _378  and  _379
REMARK  158  A    between atoms: _382  and  _384
REMARK  159  A    between atoms: _384  and  _385
REMARK  160  A    between atoms: _387  and  _389
REMARK  161  A    between atoms: _389  and  _390
REMARK  162  A    between atoms: _392  and  _394
REMARK  163  A    between atoms: _394  and  _395
REMARK  164  A    between atoms: _394  and  _397
REMARK  165  A    between atoms: _397  and  _398
REMARK  166  A    between atoms: _402  and  _403
REMARK  167  A    between atoms: _408  and  _410
REMARK  168  A    between atoms: _410  and  _411
REMARK  169  A    between atoms: _410  and  _413
REMARK  170  A    between atoms: _413  and  _414
REMARK  171  A    between atoms: _418  and  _419
REMARK  172  A    between atoms: _424  and  _426
REMARK  173  A    between atoms: _426  and  _427
REMARK  174  A    between atoms: _426  and  _429
REMARK  175  A    between atoms: _432  and  _434
REMARK  176  A    between atoms: _434  and  _435
REMARK  177  A    between atoms: _434  and  _437
REMARK  178  A    between atoms: _437  and  _438
REMARK  179  A    between atoms: _443  and  _445
REMARK  180  A    between atoms: _445  and  _446
REMARK  181  A    between atoms: _445  and  _448
REMARK  182  A    between atoms: _448  and  _449
REMARK  183  A    between atoms: _452  and  _454
REMARK  184  A    between atoms: _454  and  _455
REMARK  185  A    between atoms: _454  and  _457
REMARK  186  A    between atoms: _457  and  _458
REMARK  187  A    between atoms: _461  and  _463
REMARK  188  A    between atoms: _463  and  _464
REMARK                            x       y       z     vdW  Elec       q    Type
REMARK                         _______ _______ _______ _____ _____    ______ ____
ROOT
ATOM      1  CA  LEU A   1       7.748  30.772  16.531  0.00  0.00    +0.133 C 
ENDROOT
BRANCH   1   2
ATOM      2  N   LEU A   1       8.525  31.953  16.167  0.00  0.00    -0.239 NA
ATOM      3  H   LEU A   1       9.189  31.889  15.369  0.00  0.00    +0.142 HD
ENDBRANCH   1   2
BRANCH   1   4
ATOM      4  C   LEU A   1       8.633  29.862  17.371  0.00  0.00    +0.224 C 
ATOM      5  O   LEU A   1       9.788  29.631  17.023  0.00  0.00    -0.287 OA
ENDBRANCH   1   4
BRANCH   1   6
ATOM      6  CB  LEU A   1       7.295  30.029  15.272  0.00  0.00    +0.025 C 
BRANCH   6   7
ATOM      7  CG  LEU A   1       6.680  30.883  14.159  0.00  0.00    +0.002 C 
ATOM      8  CD2 LEU A   1       5.453  31.651  14.665  0.00  0.00    +0.000 C 
ATOM      9  CD1 LEU A   1       6.318  29.994  12.992  0.00  0.00    +0.000 C 
ENDBRANCH   6   7
ENDBRANCH   1   6
TORSDOF 4
REMARK  Name = ../refined-set-2016/1a30/1a30_pocket.pdb
REMARK  188 active torsions:
REMARK  status: ('A' for Active; 'I' for Inactive)
REMARK    1  A    between atoms: _1  and  _3
REMARK    2  A    between atoms: _3  and  _4
REMARK    3  A    between atoms: _3  and  _6
REMARK    4  A    between atoms: _6  and  _7
REMARK    5  A    between atoms: _10  and  _12
REMARK    6  A    between atoms: _12  and  _13
REMARK    7  A    between atoms: _12  and  _15
REMARK    8  A    between atoms: _15  and  _16
REMARK    9  A    between atoms: _19  and  _21
REMARK   10  A    between atoms: _21  and  _22
REMARK   11  A    between atoms: _21  and  _24
REMARK   12  A    between atoms: _24  and  _25
REMARK   13  A    between atoms: _28  and  _30
REMARK   14  A    between atoms: _30  and  _31
REMARK   15  A    between atoms: _30  and  _33
REMARK   16  A    between atoms: _33  and  _34
REMARK   17  A    between atoms: _37  and  _39
REMARK   18  A    between atoms: _39  and  _40
REMARK   19  A    between atoms: _42  and  _44
REMARK   20  A    between atoms: _44  and  _45
REMARK   21  A    between atoms: _48  and  _50
REMARK   22  A    between atoms: _50  and  _51
REMARK   23  A    between atoms: _50  and  _53
REMARK   24  A    between atoms: _53  and  _54
REMARK   25  A    between atoms: _57  and  _59
REMARK   26  A    between atoms: _59  and  _60
REMARK   27  A    between atoms: _59  and  _62
REMARK   28  A    between atoms: _62  and  _63
REMARK   29  A    between atoms: _66  and  _68
REMARK   30  A    between atoms: _68  and  _69
REMARK   31  A    between atoms: _68  and  _71
REMARK   32  A    between atoms: _71  and  _72
REMARK   33  A    between atoms: _75  and  _77
REMARK   34  A    between atoms: _77  and  _78
REMARK   35  A    between atoms: _77  and  _80
REMARK   36  A    between atoms: _83  and  _85
REMARK   37  A    between atoms: _85  and  _86
REMARK   38  A    between atoms: _85  and  _88
REMARK   39  A    between atoms: _88  and  _89
REMARK   40  A    between atoms: _89  and  _90
REMARK   41  A    between atoms: _90  and  _91
REMARK   42  A    between atoms: _91  and  _92
REMARK   43  A    between atoms: _96  and  _98
REMARK   44  A    between atoms: _98  and  _99
REMARK   45  A    between atoms: _98  and  _101
REMARK   46  A    between atoms: _101  and  _102
REMARK   47  A    between atoms: _102  and  _103
REMARK   48  A    between atoms: _105  and  _107
REMARK   49  A    between atoms: _107  and  _108
REMARK   50  A    between atoms: _107  and  _110
REMARK   51  A    between atoms: _110  and  _111
REMARK   52  A    between atoms: _114  and  _116
REMARK   53  A    between atoms: _116  and  _117
REMARK   54  A    between atoms: _119  and  _121
REMARK   55  A    between atoms: _121  and  _122
REMARK   56  A    between atoms: _124  and  _126
REMARK   57  A    between atoms: _126  and  _127
REMARK   58  A    between atoms: _126  and  _129
REMARK   59  A    between atoms: _129  and  _130
REMARK   60  A    between atoms: _133  and  _135
REMARK   61  A    between atoms: _135  and  _136
REMARK   62  A    between atoms: _138  and  _140
REMARK   63  A    between atoms: _140  and  _141
REMARK   64  A    between atoms: _143  and  _145
REMARK   65  A    between atoms: _145  and  _146
REMARK   66  A    between atoms: _145  and  _148
REMARK   67  A    between atoms: _148  and  _149
REMARK   68  A    between atoms: _155  and  _157
REMARK   69  A    between atoms: _157  and  _158
REMARK   70  A    between atoms: _157  and  _160
REMARK   71  A    between atoms: _160  and  _161
REMARK   72  A    between atoms: _164  and  _166
REMARK   73  A    between atoms: _166  and  _167
REMARK   74  A    between atoms: _166  and  _169
REMARK   75  A    between atoms: _172  and  _174
REMARK   76  A    between atoms: _174  and  _175
REMARK   77  A    between atoms: _174  and  _177
REMARK   78  A    between atoms: _177  and  _178
REMARK   79  A    between atoms: _181  and  _183
REMARK   80  A    between atoms: _183  and  _184
REMARK   81  A    between atoms: _183  and  _186
REMARK   82  A    between atoms: _186  and  _187
REMARK   83  A    between atoms: _191  and  _192
REMARK   84  A    between atoms: _197  and  _199
REMARK   85  A    between atoms: _199  and  _200
REMARK   86  A    between atoms: _199  and  _202
REMARK   87  A    between atoms: _202  and  _203
REMARK   88  A    between atoms: _206  and  _208
REMARK   89  A    between atoms: _208  and  _209
REMARK   90  A    between atoms: _208  and  _211
REMARK   91  A    between atoms: _211  and  _212
REMARK   92  A    between atoms: _215  and  _217
REMARK   93  A    between atoms: _217  and  _218
REMARK   94  A    between atoms: _220  and  _222
REMARK   95  A    between atoms: _222  and  _223
REMARK   96  A    between atoms: _222  and  _225
REMARK   97  A    between atoms: _225  and  _226
REMARK   98  A    between atoms: _226  and  _227
REMARK   99  A    between atoms: _227  and  _228
REMARK  100  A    between atoms: _237  and  _239
REMARK  101  A    between atoms: _239  and  _240
REMARK  102  A    between atoms: _239  and  _242
REMARK  103  A    between atoms: _242  and  _243
REMARK  104  A    between atoms: _248  and  _250
REMARK  105  A    between atoms: _250  and  _251
REMARK  106  A    between atoms: _250  and  _253
REMARK  107  A    between atoms: _253  and  _254
REMARK  108  A    between atoms: _254  and  _255
REMARK  109  A    between atoms: _255  and  _256
REMARK  110  A    between atoms: _266  and  _267
REMARK  111  A    between atoms: _272  and  _274
REMARK  112  A    between atoms: _274  and  _275
REMARK  113  A    between atoms: _274  and  _277
REMARK  114  A    between atoms: _277  and  _278
REMARK  115  A    between atoms: _281  and  _283
REMARK  116  A    between atoms: _283  and  _284
REMARK  117  A    between atoms: _283  and  _286
REMARK  118  A    between atoms: _286  and  _287
REMARK  119  A    between atoms: _290  and  _292
REMARK  120  A    between atoms: _292  and  _293
REMARK  121  A    between atoms: _292  and  _295
REMARK  122  A    between atoms: _295  and  _296
REMARK  123  A    between atoms: _299  and  _301
REMARK  124  A    between atoms: _301  and  _302
REMARK  125  A    between atoms: _301  and  _304
REMARK  126  A    between atoms: _304  and  _305
REMARK  127  A    between atoms: _308  and  _310
REMARK  128  A    between atoms: _310  and  _311
REMARK  129  A    between atoms: _310  and  _313
REMARK  130  A    between atoms: _313  and  _314
REMARK  131  A    between atoms: _317  and  _319
REMARK  132  A    between atoms: _319  and  _320
REMARK  133  A    between atoms: _322  and  _324
REMARK  134  A    between atoms: _324  and  _325
REMARK  135  A    between atoms: _328  and  _330
REMARK  136  A    between atoms: _330  and  _331
REMARK  137  A    between atoms: _330  and  _333
REMARK  138  A    between atoms: _333  and  _334
REMARK  139  A    between atoms: _337  and  _339
REMARK  140  A    between atoms: _339  and  _340
REMARK  141  A    between atoms: _339  and  _342
REMARK  142  A    between atoms: _342  and  _343
REMARK  143  A    between atoms: _346  and  _348
REMARK  144  A    between atoms: _348  and  _349
REMARK  145  A    between atoms: _348  and  _351
REMARK  146  A    between atoms: _354  and  _356
REMARK  147  A    between atoms: _356  and  _357
REMARK  148  A    between atoms: _356  and  _359
REMARK  149  A    between atoms: _359  and  _360
REMARK  150  A    between atoms: _363  and  _365
REMARK  151  A    between atoms: _365  and  _366
REMARK  152  A    between atoms: _368  and  _370
REMARK  153  A    between atoms: _370  and  _371
REMARK  154  A    between atoms: _373  and  _375
REMARK  155  A    between atoms: _375  and  _376
REMARK  156  A    between atoms: _375  and  _378
REMARK  157  A    between atoms: _378  and  _379
REMARK  158  A    between atoms: _382  and  _384
REMARK  159  A    between atoms: _384  and  _385
REMARK  160  A    between atoms: _387  and  _389
REMARK  161  A    between atoms: _389  and  _390
REMARK  162  A    between atoms: _392  and  _394
REMARK  163  A    between atoms: _394  and  _395
REMARK  164  A    between atoms: _394  and  _397
REMARK  165  A    between atoms: _397  and  _398
REMARK  166  A    between atoms: _402  and  _403
REMARK  167  A    between atoms: _408  and  _410
REMARK  168  A    between atoms: _410  and  _411
REMARK  169  A    between atoms: _410  and  _413
REMARK  170  A    between atoms: _413  and  _414
REMARK  171  A    between atoms: _418  and  _419
REMARK  172  A    between atoms: _424  and  _426
REMARK  173  A    between atoms: _426  and  _427
REMARK  174  A    between atoms: _426  and  _429
REMARK  175  A    between atoms: _432  and  _434
REMARK  176  A    between atoms: _434  and  _435
REMARK  177  A    between atoms: _434  and  _437
REMARK  178  A    between atoms: _437  and  _438
REMARK  179  A    between atoms: _443  and  _445
REMARK  180  A    between atoms: _445  and  _446
REMARK  181  A    between atoms: _445  and  _448
REMARK  182  A    between atoms: _448  and  _449
REMARK  183  A    between atoms: _452  and  _454
REMARK  184  A    between atoms: _454  and  _455
REMARK  185  A    between atoms: _454  and  _457
REMARK  186  A    between atoms: _457  and  _458
REMARK  187  A    between atoms: _461  and  _463
REMARK  188  A    between atoms: _463  and  _464
REMARK                            x       y       z     vdW  Elec       q    Type
REMARK                         _______ _______ _______ _____ _____    ______ ____
ROOT
ATOM      1  C   THR A   1      13.241  21.453  15.800  0.00  0.00    +0.244 C 
ATOM      2  O   THR A   1      13.825  21.592  16.877  0.00  0.00    -0.273 OA
ATOM      3  N   PRO A   2      13.713  20.646  14.831  0.00  0.00    -0.273 N 
ATOM      4  CA  PRO A   2      14.974  19.897  14.974  0.00  0.00    +0.140 C 
ATOM      5  CB  PRO A   2      15.033  19.070  13.687  0.00  0.00    +0.030 C 
ATOM      6  CG  PRO A   2      13.612  19.040  13.199  0.00  0.00    +0.024 C 
ATOM      7  CD  PRO A   2      13.122  20.414  13.504  0.00  0.00    +0.094 C 
ENDROOT
BRANCH   4   8
ATOM      8  C   PRO A   2      16.199  20.795  15.077  0.00  0.00    +0.227 C 
ATOM      9  O   PRO A   2      17.198  20.418  15.687  0.00  0.00    -0.286 OA
ENDBRANCH   4   8
BRANCH   1  10
ATOM     10  CA  THR A   1      11.912  22.173  15.541  0.00  0.00    +0.172 C 
BRANCH  10  11
ATOM     11  N   THR A   1      11.171  22.175  16.801  0.00  0.00    -0.236 NA
ATOM     12  H   THR A   1      11.197  23.018  17.410  0.00  0.00    +0.142 HD
ENDBRANCH  10  11
BRANCH  10  13
ATOM     13  CB  THR A   1      12.132  23.612  15.000  0.00  0.00    +0.135 C 
ATOM     14  CG2 THR A   1      12.806  24.487  16.019  0.00  0.00    +0.034 C 
BRANCH  13  15
ATOM     15  OG1 THR A   1      12.937  23.564  13.821  0.00  0.00    -0.383 OA
ATOM     16  HG1 THR A   1      13.813  23.156  14.037  0.00  0.00    +0.210 HD
ENDBRANCH  13  15
ENDBRANCH  10  13
ENDBRANCH   1  10
TORSDOF 5
REMARK  Name = ../refined-set-2016/1a30/1a30_pocket.pdb
REMARK  188 active torsions:
REMARK  status: ('A' for Active; 'I' for Inactive)
REMARK    1  A    between atoms: _1  and  _3
REMARK    2  A    between atoms: _3  and  _4
REMARK    3  A    between atoms: _3  and  _6
REMARK    4  A    between atoms: _6  and  _7
REMARK    5  A    between atoms: _10  and  _12
REMARK    6  A    between atoms: _12  and  _13
REMARK    7  A    between atoms: _12  and  _15
REMARK    8  A    between atoms: _15  and  _16
REMARK    9  A    between atoms: _19  and  _21
REMARK   10  A    between atoms: _21  and  _22
REMARK   11  A    between atoms: _21  and  _24
REMARK   12  A    between atoms: _24  and  _25
REMARK   13  A    between atoms: _28  and  _30
REMARK   14  A    between atoms: _30  and  _31
REMARK   15  A    between atoms: _30  and  _33
REMARK   16  A    between atoms: _33  and  _34
REMARK   17  A    between atoms: _37  and  _39
REMARK   18  A    between atoms: _39  and  _40
REMARK   19  A    between atoms: _42  and  _44
REMARK   20  A    between atoms: _44  and  _45
REMARK   21  A    between atoms: _48  and  _50
REMARK   22  A    between atoms: _50  and  _51
REMARK   23  A    between atoms: _50  and  _53
REMARK   24  A    between atoms: _53  and  _54
REMARK   25  A    between atoms: _57  and  _59
REMARK   26  A    between atoms: _59  and  _60
REMARK   27  A    between atoms: _59  and  _62
REMARK   28  A    between atoms: _62  and  _63
REMARK   29  A    between atoms: _66  and  _68
REMARK   30  A    between atoms: _68  and  _69
REMARK   31  A    between atoms: _68  and  _71
REMARK   32  A    between atoms: _71  and  _72
REMARK   33  A    between atoms: _75  and  _77
REMARK   34  A    between atoms: _77  and  _78
REMARK   35  A    between atoms: _77  and  _80
REMARK   36  A    between atoms: _83  and  _85
REMARK   37  A    between atoms: _85  and  _86
REMARK   38  A    between atoms: _85  and  _88
REMARK   39  A    between atoms: _88  and  _89
REMARK   40  A    between atoms: _89  and  _90
REMARK   41  A    between atoms: _90  and  _91
REMARK   42  A    between atoms: _91  and  _92
REMARK   43  A    between atoms: _96  and  _98
REMARK   44  A    between atoms: _98  and  _99
REMARK   45  A    between atoms: _98  and  _101
REMARK   46  A    between atoms: _101  and  _102
REMARK   47  A    between atoms: _102  and  _103
REMARK   48  A    between atoms: _105  and  _107
REMARK   49  A    between atoms: _107  and  _108
REMARK   50  A    between atoms: _107  and  _110
REMARK   51  A    between atoms: _110  and  _111
REMARK   52  A    between atoms: _114  and  _116
REMARK   53  A    between atoms: _116  and  _117
REMARK   54  A    between atoms: _119  and  _121
REMARK   55  A    between atoms: _121  and  _122
REMARK   56  A    between atoms: _124  and  _126
REMARK   57  A    between atoms: _126  and  _127
REMARK   58  A    between atoms: _126  and  _129
REMARK   59  A    between atoms: _129  and  _130
REMARK   60  A    between atoms: _133  and  _135
REMARK   61  A    between atoms: _135  and  _136
REMARK   62  A    between atoms: _138  and  _140
REMARK   63  A    between atoms: _140  and  _141
REMARK   64  A    between atoms: _143  and  _145
REMARK   65  A    between atoms: _145  and  _146
REMARK   66  A    between atoms: _145  and  _148
REMARK   67  A    between atoms: _148  and  _149
REMARK   68  A    between atoms: _155  and  _157
REMARK   69  A    between atoms: _157  and  _158
REMARK   70  A    between atoms: _157  and  _160
REMARK   71  A    between atoms: _160  and  _161
REMARK   72  A    between atoms: _164  and  _166
REMARK   73  A    between atoms: _166  and  _167
REMARK   74  A    between atoms: _166  and  _169
REMARK   75  A    between atoms: _172  and  _174
REMARK   76  A    between atoms: _174  and  _175
REMARK   77  A    between atoms: _174  and  _177
REMARK   78  A    between atoms: _177  and  _178
REMARK   79  A    between atoms: _181  and  _183
REMARK   80  A    between atoms: _183  and  _184
REMARK   81  A    between atoms: _183  and  _186
REMARK   82  A    between atoms: _186  and  _187
REMARK   83  A    between atoms: _191  and  _192
REMARK   84  A    between atoms: _197  and  _199
REMARK   85  A    between atoms: _199  and  _200
REMARK   86  A    between atoms: _199  and  _202
REMARK   87  A    between atoms: _202  and  _203
REMARK   88  A    between atoms: _206  and  _208
REMARK   89  A    between atoms: _208  and  _209
REMARK   90  A    between atoms: _208  and  _211
REMARK   91  A    between atoms: _211  and  _212
REMARK   92  A    between atoms: _215  and  _217
REMARK   93  A    between atoms: _217  and  _218
REMARK   94  A    between atoms: _220  and  _222
REMARK   95  A    between atoms: _222  and  _223
REMARK   96  A    between atoms: _222  and  _225
REMARK   97  A    between atoms: _225  and  _226
REMARK   98  A    between atoms: _226  and  _227
REMARK   99  A    between atoms: _227  and  _228
REMARK  100  A    between atoms: _237  and  _239
REMARK  101  A    between atoms: _239  and  _240
REMARK  102  A    between atoms: _239  and  _242
REMARK  103  A    between atoms: _242  and  _243
REMARK  104  A    between atoms: _248  and  _250
REMARK  105  A    between atoms: _250  and  _251
REMARK  106  A    between atoms: _250  and  _253
REMARK  107  A    between atoms: _253  and  _254
REMARK  108  A    between atoms: _254  and  _255
REMARK  109  A    between atoms: _255  and  _256
REMARK  110  A    between atoms: _266  and  _267
REMARK  111  A    between atoms: _272  and  _274
REMARK  112  A    between atoms: _274  and  _275
REMARK  113  A    between atoms: _274  and  _277
REMARK  114  A    between atoms: _277  and  _278
REMARK  115  A    between atoms: _281  and  _283
REMARK  116  A    between atoms: _283  and  _284
REMARK  117  A    between atoms: _283  and  _286
REMARK  118  A    between atoms: _286  and  _287
REMARK  119  A    between atoms: _290  and  _292
REMARK  120  A    between atoms: _292  and  _293
REMARK  121  A    between atoms: _292  and  _295
REMARK  122  A    between atoms: _295  and  _296
REMARK  123  A    between atoms: _299  and  _301
REMARK  124  A    between atoms: _301  and  _302
REMARK  125  A    between atoms: _301  and  _304
REMARK  126  A    between atoms: _304  and  _305
REMARK  127  A    between atoms: _308  and  _310
REMARK  128  A    between atoms: _310  and  _311
REMARK  129  A    between atoms: _310  and  _313
REMARK  130  A    between atoms: _313  and  _314
REMARK  131  A    between atoms: _317  and  _319
REMARK  132  A    between atoms: _319  and  _320
REMARK  133  A    between atoms: _322  and  _324
REMARK  134  A    between atoms: _324  and  _325
REMARK  135  A    between atoms: _328  and  _330
REMARK  136  A    between atoms: _330  and  _331
REMARK  137  A    between atoms: _330  and  _333
REMARK  138  A    between atoms: _333  and  _334
REMARK  139  A    between atoms: _337  and  _339
REMARK  140  A    between atoms: _339  and  _340
REMARK  141  A    between atoms: _339  and  _342
REMARK  142  A    between atoms: _342  and  _343
REMARK  143  A    between atoms: _346  and  _348
REMARK  144  A    between atoms: _348  and  _349
REMARK  145  A    between atoms: _348  and  _351
REMARK  146  A    between atoms: _354  and  _356
REMARK  147  A    between atoms: _356  and  _357
REMARK  148  A    between atoms: _356  and  _359
REMARK  149  A    between atoms: _359  and  _360
REMARK  150  A    between atoms: _363  and  _365
REMARK  151  A    between atoms: _365  and  _366
REMARK  152  A    between atoms: _368  and  _370
REMARK  153  A    between atoms: _370  and  _371
REMARK  154  A    between atoms: _373  and  _375
REMARK  155  A    between atoms: _375  and  _376
REMARK  156  A    between atoms: _375  and  _378
REMARK  157  A    between atoms: _378  and  _379
REMARK  158  A    between atoms: _382  and  _384
REMARK  159  A    between atoms: _384  and  _385
REMARK  160  A    between atoms: _387  and  _389
REMARK  161  A    between atoms: _389  and  _390
REMARK  162  A    between atoms: _392  and  _394
REMARK  163  A    between atoms: _394  and  _395
REMARK  164  A    between atoms: _394  and  _397
REMARK  165  A    between atoms: _397  and  _398
REMARK  166  A    between atoms: _402  and  _403
REMARK  167  A    between atoms: _408  and  _410
REMARK  168  A    between atoms: _410  and  _411
REMARK  169  A    between atoms: _410  and  _413
REMARK  170  A    between atoms: _413  and  _414
REMARK  171  A    between atoms: _418  and  _419
REMARK  172  A    between atoms: _424  and  _426
REMARK  173  A    between atoms: _426  and  _427
REMARK  174  A    between atoms: _426  and  _429
REMARK  175  A    between atoms: _432  and  _434
REMARK  176  A    between atoms: _434  and  _435
REMARK  177  A    between atoms: _434  and  _437
REMARK  178  A    between atoms: _437  and  _438
REMARK  179  A    between atoms: _443  and  _445
REMARK  180  A    between atoms: _445  and  _446
REMARK  181  A    between atoms: _445  and  _448
REMARK  182  A    between atoms: _448  and  _449
REMARK  183  A    between atoms: _452  and  _454
REMARK  184  A    between atoms: _454  and  _455
REMARK  185  A    between atoms: _454  and  _457
REMARK  186  A    between atoms: _457  and  _458
REMARK  187  A    between atoms: _461  and  _463
REMARK  188  A    between atoms: _463  and  _464
REMARK                            x       y       z     vdW  Elec       q    Type
REMARK                         _______ _______ _______ _____ _____    ______ ____
ROOT
ATOM      1  CA  ARG A   4      12.648  35.143   5.393  0.00  0.00    +0.149 C 
ENDROOT
BRANCH   1   4
ATOM      2  C   GLY A   3      13.398  33.845   7.327  0.00  0.00    +0.243 C 
ATOM      3  O   GLY A   3      13.973  34.805   7.846  0.00  0.00    -0.273 OA
ATOM      4  N   ARG A   4      12.723  33.925   6.185  0.00  0.00    -0.297 N 
ATOM      5  H   ARG A   4      12.226  33.078   5.842  0.00  0.00    +0.150 HD
BRANCH   2   6
ATOM      6  CA  GLY A   3      13.383  32.495   8.003  0.00  0.00    +0.176 C 
BRANCH   6   8
ATOM      7  C   ILE A   2      15.383  32.116   9.281  0.00  0.00    +0.241 C 
ATOM      8  N   GLY A   3      14.099  32.438   9.263  0.00  0.00    -0.295 N 
ATOM      9  H   GLY A   3      13.604  32.650  10.153  0.00  0.00    +0.150 HD
ATOM     10  O   ILE A   2      16.020  31.856   8.261  0.00  0.00    -0.273 OA
BRANCH   7  11
ATOM     11  CA  ILE A   2      16.049  32.050  10.650  0.00  0.00    +0.148 C 
BRANCH  11  14
ATOM     12  C   ILE A   1      15.605  29.848  11.618  0.00  0.00    +0.238 C 
ATOM     13  O   ILE A   1      14.663  30.270  12.293  0.00  0.00    -0.274 OA
ATOM     14  N   ILE A   2      16.359  30.635  10.852  0.00  0.00    -0.297 N 
ATOM     15  H   ILE A   2      17.194  30.230  10.383  0.00  0.00    +0.150 HD
BRANCH  12  16
ATOM     16  CA  ILE A   1      16.026  28.381  11.700  0.00  0.00    +0.145 C 
BRANCH  16  17
ATOM     17  N   ILE A   1      15.973  27.858  13.066  0.00  0.00    -0.238 NA
ATOM     18  H   ILE A   1      15.105  27.968  13.629  0.00  0.00    +0.142 HD
ENDBRANCH  16  17
BRANCH  16  19
ATOM     19  CB  ILE A   1      15.162  27.535  10.700  0.00  0.00    +0.025 C 
ATOM     20  CG2 ILE A   1      15.549  26.061  10.760  0.00  0.00    +0.002 C 
BRANCH  19  21
ATOM     21  CG1 ILE A   1      13.674  27.664  11.011  0.00  0.00    +0.002 C 
ATOM     22  CD1 ILE A   1      12.788  26.775  10.152  0.00  0.00    +0.000 C 
ENDBRANCH  19  21
ENDBRANCH  16  19
ENDBRANCH  12  16
ENDBRANCH  11  14
BRANCH  11  23
ATOM     23  CB  ILE A   2      17.330  32.951  10.650  0.00  0.00    +0.027 C 
ATOM     24  CG2 ILE A   2      16.955  34.413  10.424  0.00  0.00    +0.002 C 
BRANCH  23  25
ATOM     25  CG1 ILE A   2      18.100  32.814  11.967  0.00  0.00    +0.002 C 
ATOM     26  CD1 ILE A   2      17.324  33.209  13.213  0.00  0.00    +0.000 C 
ENDBRANCH  23  25
ENDBRANCH  11  23
ENDBRANCH   7  11
ENDBRANCH   6   8
ENDBRANCH   2   6
ENDBRANCH   1   4
BRANCH   1  27
ATOM     27  C   ARG A   4      12.103  36.370   6.106  0.00  0.00    +0.241 C 
ATOM     28  N   ASN A   5      11.272  36.182   7.130  0.00  0.00    -0.298 N 
ATOM     29  H   ASN A   5      11.027  35.215   7.425  0.00  0.00    +0.150 HD
ATOM     30  O   ARG A   4      12.452  37.488   5.738  0.00  0.00    -0.273 OA
BRANCH  28  31
ATOM     31  CA  ASN A   5      10.702  37.326   7.842  0.00  0.00    +0.146 C 
BRANCH  31  32
ATOM     32  C   ASN A   5      11.759  38.148   8.580  0.00  0.00    +0.227 C 
ATOM     33  O   ASN A   5      11.540  39.327   8.858  0.00  0.00    -0.286 OA
ENDBRANCH  31  32
BRANCH  31  34
ATOM     34  CB  ASN A   5       9.597  36.887   8.809  0.00  0.00    +0.112 C 
BRANCH  34  35
ATOM     35  CG  ASN A   5      10.128  36.130  10.011  0.00  0.00    +0.222 C 
ATOM     36  ND2 ASN A   5       9.736  36.564  11.200  0.00  0.00    -0.329 N 
ATOM     37 HD21 ASN A   5      10.053  36.076  12.062  0.00  0.00    +0.145 HD
ATOM     38 HD22 ASN A   5       9.112  37.393  11.271  0.00  0.00    +0.145 HD
ATOM     39  OD1 ASN A   5      10.864  35.157   9.873  0.00  0.00    -0.275 OA
ENDBRANCH  34  35
ENDBRANCH  31  34
ENDBRANCH  28  31
ENDBRANCH   1  27
BRANCH   1  40
ATOM     40  CB  ARG A   4      11.828  34.906   4.134  0.00  0.00    +0.033 C 
BRANCH  40  41
ATOM     41  CG  ARG A   4      12.432  33.920   3.171  0.00  0.00    +0.045 C 
BRANCH  41  42
ATOM     42  CD  ARG A   4      11.659  33.900   1.865  0.00  0.00    +0.174 C 
BRANCH  42  43
ATOM     43  NE  ARG A   4      10.265  33.494   2.048  0.00  0.00    -0.265 N 
ATOM     44  HE  ARG A   4      10.069  32.478   2.149  0.00  0.00    +0.259 HD
ATOM     45  CZ  ARG A   4       9.227  34.329   2.095  0.00  0.00    +0.342 C 
ATOM     46  NH2 ARG A   4       8.005  33.849   2.267  0.00  0.00    -0.292 N 
ATOM     47 HH21 ARG A   4       7.858  32.824   2.365  0.00  0.00    +0.255 HD
ATOM     48 HH22 ARG A   4       7.192  34.497   2.304  0.00  0.00    +0.255 HD
ATOM     49  NH1 ARG A   4       9.396  35.636   1.925  0.00  0.00    -0.292 N 
ATOM     50 HH11 ARG A   4       8.577  36.276   1.964  0.00  0.00    +0.255 HD
ATOM     51 HH12 ARG A   4      10.347  36.019   1.753  0.00  0.00    +0.255 HD
ENDBRANCH  42  43
ENDBRANCH  41  42
ENDBRANCH  40  41
ENDBRANCH   1  40
TORSDOF 20
REMARK  Name = ../refined-set-2016/1a30/1a30_pocket.pdb
REMARK  188 active torsions:
REMARK  status: ('A' for Active; 'I' for Inactive)
REMARK    1  A    between atoms: _1  and  _3
REMARK    2  A    between atoms: _3  and  _4
REMARK    3  A    between atoms: _3  and  _6
REMARK    4  A    between atoms: _6  and  _7
REMARK    5  A    between atoms: _10  and  _12
REMARK    6  A    between atoms: _12  and  _13
REMARK    7  A    between atoms: _12  and  _15
REMARK    8  A    between atoms: _15  and  _16
REMARK    9  A    between atoms: _19  and  _21
REMARK   10  A    between atoms: _21  and  _22
REMARK   11  A    between atoms: _21  and  _24
REMARK   12  A    between atoms: _24  and  _25
REMARK   13  A    between atoms: _28  and  _30
REMARK   14  A    between atoms: _30  and  _31
REMARK   15  A    between atoms: _30  and  _33
REMARK   16  A    between atoms: _33  and  _34
REMARK   17  A    between atoms: _37  and  _39
REMARK   18  A    between atoms: _39  and  _40
REMARK   19  A    between atoms: _42  and  _44
REMARK   20  A    between atoms: _44  and  _45
REMARK   21  A    between atoms: _48  and  _50
REMARK   22  A    between atoms: _50  and  _51
REMARK   23  A    between atoms: _50  and  _53
REMARK   24  A    between atoms: _53  and  _54
REMARK   25  A    between atoms: _57  and  _59
REMARK   26  A    between atoms: _59  and  _60
REMARK   27  A    between atoms: _59  and  _62
REMARK   28  A    between atoms: _62  and  _63
REMARK   29  A    between atoms: _66  and  _68
REMARK   30  A    between atoms: _68  and  _69
REMARK   31  A    between atoms: _68  and  _71
REMARK   32  A    between atoms: _71  and  _72
REMARK   33  A    between atoms: _75  and  _77
REMARK   34  A    between atoms: _77  and  _78
REMARK   35  A    between atoms: _77  and  _80
REMARK   36  A    between atoms: _83  and  _85
REMARK   37  A    between atoms: _85  and  _86
REMARK   38  A    between atoms: _85  and  _88
REMARK   39  A    between atoms: _88  and  _89
REMARK   40  A    between atoms: _89  and  _90
REMARK   41  A    between atoms: _90  and  _91
REMARK   42  A    between atoms: _91  and  _92
REMARK   43  A    between atoms: _96  and  _98
REMARK   44  A    between atoms: _98  and  _99
REMARK   45  A    between atoms: _98  and  _101
REMARK   46  A    between atoms: _101  and  _102
REMARK   47  A    between atoms: _102  and  _103
REMARK   48  A    between atoms: _105  and  _107
REMARK   49  A    between atoms: _107  and  _108
REMARK   50  A    between atoms: _107  and  _110
REMARK   51  A    between atoms: _110  and  _111
REMARK   52  A    between atoms: _114  and  _116
REMARK   53  A    between atoms: _116  and  _117
REMARK   54  A    between atoms: _119  and  _121
REMARK   55  A    between atoms: _121  and  _122
REMARK   56  A    between atoms: _124  and  _126
REMARK   57  A    between atoms: _126  and  _127
REMARK   58  A    between atoms: _126  and  _129
REMARK   59  A    between atoms: _129  and  _130
REMARK   60  A    between atoms: _133  and  _135
REMARK   61  A    between atoms: _135  and  _136
REMARK   62  A    between atoms: _138  and  _140
REMARK   63  A    between atoms: _140  and  _141
REMARK   64  A    between atoms: _143  and  _145
REMARK   65  A    between atoms: _145  and  _146
REMARK   66  A    between atoms: _145  and  _148
REMARK   67  A    between atoms: _148  and  _149
REMARK   68  A    between atoms: _155  and  _157
REMARK   69  A    between atoms: _157  and  _158
REMARK   70  A    between atoms: _157  and  _160
REMARK   71  A    between atoms: _160  and  _161
REMARK   72  A    between atoms: _164  and  _166
REMARK   73  A    between atoms: _166  and  _167
REMARK   74  A    between atoms: _166  and  _169
REMARK   75  A    between atoms: _172  and  _174
REMARK   76  A    between atoms: _174  and  _175
REMARK   77  A    between atoms: _174  and  _177
REMARK   78  A    between atoms: _177  and  _178
REMARK   79  A    between atoms: _181  and  _183
REMARK   80  A    between atoms: _183  and  _184
REMARK   81  A    between atoms: _183  and  _186
REMARK   82  A    between atoms: _186  and  _187
REMARK   83  A    between atoms: _191  and  _192
REMARK   84  A    between atoms: _197  and  _199
REMARK   85  A    between atoms: _199  and  _200
REMARK   86  A    between atoms: _199  and  _202
REMARK   87  A    between atoms: _202  and  _203
REMARK   88  A    between atoms: _206  and  _208
REMARK   89  A    between atoms: _208  and  _209
REMARK   90  A    between atoms: _208  and  _211
REMARK   91  A    between atoms: _211  and  _212
REMARK   92  A    between atoms: _215  and  _217
REMARK   93  A    between atoms: _217  and  _218
REMARK   94  A    between atoms: _220  and  _222
REMARK   95  A    between atoms: _222  and  _223
REMARK   96  A    between atoms: _222  and  _225
REMARK   97  A    between atoms: _225  and  _226
REMARK   98  A    between atoms: _226  and  _227
REMARK   99  A    between atoms: _227  and  _228
REMARK  100  A    between atoms: _237  and  _239
REMARK  101  A    between atoms: _239  and  _240
REMARK  102  A    between atoms: _239  and  _242
REMARK  103  A    between atoms: _242  and  _243
REMARK  104  A    between atoms: _248  and  _250
REMARK  105  A    between atoms: _250  and  _251
REMARK  106  A    between atoms: _250  and  _253
REMARK  107  A    between atoms: _253  and  _254
REMARK  108  A    between atoms: _254  and  _255
REMARK  109  A    between atoms: _255  and  _256
REMARK  110  A    between atoms: _266  and  _267
REMARK  111  A    between atoms: _272  and  _274
REMARK  112  A    between atoms: _274  and  _275
REMARK  113  A    between atoms: _274  and  _277
REMARK  114  A    between atoms: _277  and  _278
REMARK  115  A    between atoms: _281  and  _283
REMARK  116  A    between atoms: _283  and  _284
REMARK  117  A    between atoms: _283  and  _286
REMARK  118  A    between atoms: _286  and  _287
REMARK  119  A    between atoms: _290  and  _292
REMARK  120  A    between atoms: _292  and  _293
REMARK  121  A    between atoms: _292  and  _295
REMARK  122  A    between atoms: _295  and  _296
REMARK  123  A    between atoms: _299  and  _301
REMARK  124  A    between atoms: _301  and  _302
REMARK  125  A    between atoms: _301  and  _304
REMARK  126  A    between atoms: _304  and  _305
REMARK  127  A    between atoms: _308  and  _310
REMARK  128  A    between atoms: _310  and  _311
REMARK  129  A    between atoms: _310  and  _313
REMARK  130  A    between atoms: _313  and  _314
REMARK  131  A    between atoms: _317  and  _319
REMARK  132  A    between atoms: _319  and  _320
REMARK  133  A    between atoms: _322  and  _324
REMARK  134  A    between atoms: _324  and  _325
REMARK  135  A    between atoms: _328  and  _330
REMARK  136  A    between atoms: _330  and  _331
REMARK  137  A    between atoms: _330  and  _333
REMARK  138  A    between atoms: _333  and  _334
REMARK  139  A    between atoms: _337  and  _339
REMARK  140  A    between atoms: _339  and  _340
REMARK  141  A    between atoms: _339  and  _342
REMARK  142  A    between atoms: _342  and  _343
REMARK  143  A    between atoms: _346  and  _348
REMARK  144  A    between atoms: _348  and  _349
REMARK  145  A    between atoms: _348  and  _351
REMARK  146  A    between atoms: _354  and  _356
REMARK  147  A    between atoms: _356  and  _357
REMARK  148  A    between atoms: _356  and  _359
REMARK  149  A    between atoms: _359  and  _360
REMARK  150  A    between atoms: _363  and  _365
REMARK  151  A    between atoms: _365  and  _366
REMARK  152  A    between atoms: _368  and  _370
REMARK  153  A    between atoms: _370  and  _371
REMARK  154  A    between atoms: _373  and  _375
REMARK  155  A    between atoms: _375  and  _376
REMARK  156  A    between atoms: _375  and  _378
REMARK  157  A    between atoms: _378  and  _379
REMARK  158  A    between atoms: _382  and  _384
REMARK  159  A    between atoms: _384  and  _385
REMARK  160  A    between atoms: _387  and  _389
REMARK  161  A    between atoms: _389  and  _390
REMARK  162  A    between atoms: _392  and  _394
REMARK  163  A    between atoms: _394  and  _395
REMARK  164  A    between atoms: _394  and  _397
REMARK  165  A    between atoms: _397  and  _398
REMARK  166  A    between atoms: _402  and  _403
REMARK  167  A    between atoms: _408  and  _410
REMARK  168  A    between atoms: _410  and  _411
REMARK  169  A    between atoms: _410  and  _413
REMARK  170  A    between atoms: _413  and  _414
REMARK  171  A    between atoms: _418  and  _419
REMARK  172  A    between atoms: _424  and  _426
REMARK  173  A    between atoms: _426  and  _427
REMARK  174  A    between atoms: _426  and  _429
REMARK  175  A    between atoms: _432  and  _434
REMARK  176  A    between atoms: _434  and  _435
REMARK  177  A    between atoms: _434  and  _437
REMARK  178  A    between atoms: _437  and  _438
REMARK  179  A    between atoms: _443  and  _445
REMARK  180  A    between atoms: _445  and  _446
REMARK  181  A    between atoms: _445  and  _448
REMARK  182  A    between atoms: _448  and  _449
REMARK  183  A    between atoms: _452  and  _454
REMARK  184  A    between atoms: _454  and  _455
REMARK  185  A    between atoms: _454  and  _457
REMARK  186  A    between atoms: _457  and  _458
REMARK  187  A    between atoms: _461  and  _463
REMARK  188  A    between atoms: _463  and  _464
REMARK                            x       y       z     vdW  Elec       q    Type
REMARK                         _______ _______ _______ _____ _____    ______ ____
ROOT
ATOM      1  C   ARG A   1      10.409  33.022  -2.844  0.00  0.00    +0.241 C 
ATOM      2  N   PRO A   2      11.681  32.652  -2.650  0.00  0.00    -0.272 N 
ATOM      3  CD  PRO A   2      12.345  32.354  -1.351  0.00  0.00    +0.094 C 
ATOM      4  CG  PRO A   2      13.624  31.673  -1.785  0.00  0.00    +0.024 C 
ATOM      5  CB  PRO A   2      13.989  32.468  -3.023  0.00  0.00    +0.031 C 
ATOM      6  CA  PRO A   2      12.652  32.587  -3.746  0.00  0.00    +0.152 C 
ATOM      7  O   ARG A   1       9.974  33.329  -3.953  0.00  0.00    -0.273 OA
ENDROOT
BRANCH   6   8
ATOM      8  C   PRO A   2      12.409  31.400  -4.686  0.00  0.00    +0.241 C 
ATOM      9  O   PRO A   2      13.216  30.467  -4.735  0.00  0.00    -0.273 OA
ATOM     10  N   LEU A   3      11.297  31.443  -5.414  0.00  0.00    -0.298 N 
ATOM     11  H   LEU A   3      10.665  32.261  -5.302  0.00  0.00    +0.150 HD
BRANCH  10  12
ATOM     12  CA  LEU A   3      10.917  30.397  -6.366  0.00  0.00    +0.137 C 
BRANCH  12  13
ATOM     13  C   LEU A   3      11.461  30.720  -7.741  0.00  0.00    +0.227 C 
ATOM     14  O   LEU A   3      11.329  31.849  -8.205  0.00  0.00    -0.286 OA
ENDBRANCH  12  13
BRANCH  12  15
ATOM     15  CB  LEU A   3       9.397  30.318  -6.483  0.00  0.00    +0.028 C 
BRANCH  15  16
ATOM     16  CG  LEU A   3       8.621  29.909  -5.244  0.00  0.00    +0.002 C 
ATOM     17  CD2 LEU A   3       8.787  28.425  -5.032  0.00  0.00    +0.000 C 
ATOM     18  CD1 LEU A   3       7.156  30.269  -5.425  0.00  0.00    +0.000 C 
ENDBRANCH  15  16
ENDBRANCH  12  15
ENDBRANCH  10  12
ENDBRANCH   6   8
BRANCH   1  19
ATOM     19  CA  ARG A   1       9.495  33.055  -1.636  0.00  0.00    +0.145 C 
BRANCH  19  20
ATOM     20  N   ARG A   1       8.791  34.325  -1.467  0.00  0.00    -0.238 NA
ATOM     21  H   ARG A   1       7.751  34.336  -1.445  0.00  0.00    +0.142 HD
ENDBRANCH  19  20
BRANCH  19  22
ATOM     22  CB  ARG A   1       8.508  31.891  -1.701  0.00  0.00    +0.030 C 
BRANCH  22  23
ATOM     23  CG  ARG A   1       7.803  31.636  -0.396  0.00  0.00    +0.045 C 
BRANCH  23  24
ATOM     24  CD  ARG A   1       6.823  30.509  -0.564  0.00  0.00    +0.174 C 
BRANCH  24  25
ATOM     25  NE  ARG A   1       6.093  30.241   0.667  0.00  0.00    -0.265 N 
ATOM     26  HE  ARG A   1       6.620  30.267   1.563  0.00  0.00    +0.259 HD
ATOM     27  CZ  ARG A   1       4.795  29.965   0.715  0.00  0.00    +0.342 C 
ATOM     28  NH2 ARG A   1       4.203  29.736   1.877  0.00  0.00    -0.292 N 
ATOM     29 HH21 ARG A   1       4.755  29.772   2.758  0.00  0.00    +0.255 HD
ATOM     30 HH22 ARG A   1       3.186  29.520   1.909  0.00  0.00    +0.255 HD
ATOM     31  NH1 ARG A   1       4.091  29.900  -0.408  0.00  0.00    -0.292 N 
ATOM     32 HH11 ARG A   1       3.074  29.684  -0.373  0.00  0.00    +0.255 HD
ATOM     33 HH12 ARG A   1       4.556  30.065  -1.324  0.00  0.00    +0.255 HD
ENDBRANCH  24  25
ENDBRANCH  23  24
ENDBRANCH  22  23
ENDBRANCH  19  22
ENDBRANCH   1  19
TORSDOF 11
REMARK  Name = ../refined-set-2016/1a30/1a30_pocket.pdb
REMARK  188 active torsions:
REMARK  status: ('A' for Active; 'I' for Inactive)
REMARK    1  A    between atoms: _1  and  _3
REMARK    2  A    between atoms: _3  and  _4
REMARK    3  A    between atoms: _3  and  _6
REMARK    4  A    between atoms: _6  and  _7
REMARK    5  A    between atoms: _10  and  _12
REMARK    6  A    between atoms: _12  and  _13
REMARK    7  A    between atoms: _12  and  _15
REMARK    8  A    between atoms: _15  and  _16
REMARK    9  A    between atoms: _19  and  _21
REMARK   10  A    between atoms: _21  and  _22
REMARK   11  A    between atoms: _21  and  _24
REMARK   12  A    between atoms: _24  and  _25
REMARK   13  A    between atoms: _28  and  _30
REMARK   14  A    between atoms: _30  and  _31
REMARK   15  A    between atoms: _30  and  _33
REMARK   16  A    between atoms: _33  and  _34
REMARK   17  A    between atoms: _37  and  _39
REMARK   18  A    between atoms: _39  and  _40
REMARK   19  A    between atoms: _42  and  _44
REMARK   20  A    between atoms: _44  and  _45
REMARK   21  A    between atoms: _48  and  _50
REMARK   22  A    between atoms: _50  and  _51
REMARK   23  A    between atoms: _50  and  _53
REMARK   24  A    between atoms: _53  and  _54
REMARK   25  A    between atoms: _57  and  _59
REMARK   26  A    between atoms: _59  and  _60
REMARK   27  A    between atoms: _59  and  _62
REMARK   28  A    between atoms: _62  and  _63
REMARK   29  A    between atoms: _66  and  _68
REMARK   30  A    between atoms: _68  and  _69
REMARK   31  A    between atoms: _68  and  _71
REMARK   32  A    between atoms: _71  and  _72
REMARK   33  A    between atoms: _75  and  _77
REMARK   34  A    between atoms: _77  and  _78
REMARK   35  A    between atoms: _77  and  _80
REMARK   36  A    between atoms: _83  and  _85
REMARK   37  A    between atoms: _85  and  _86
REMARK   38  A    between atoms: _85  and  _88
REMARK   39  A    between atoms: _88  and  _89
REMARK   40  A    between atoms: _89  and  _90
REMARK   41  A    between atoms: _90  and  _91
REMARK   42  A    between atoms: _91  and  _92
REMARK   43  A    between atoms: _96  and  _98
REMARK   44  A    between atoms: _98  and  _99
REMARK   45  A    between atoms: _98  and  _101
REMARK   46  A    between atoms: _101  and  _102
REMARK   47  A    between atoms: _102  and  _103
REMARK   48  A    between atoms: _105  and  _107
REMARK   49  A    between atoms: _107  and  _108
REMARK   50  A    between atoms: _107  and  _110
REMARK   51  A    between atoms: _110  and  _111
REMARK   52  A    between atoms: _114  and  _116
REMARK   53  A    between atoms: _116  and  _117
REMARK   54  A    between atoms: _119  and  _121
REMARK   55  A    between atoms: _121  and  _122
REMARK   56  A    between atoms: _124  and  _126
REMARK   57  A    between atoms: _126  and  _127
REMARK   58  A    between atoms: _126  and  _129
REMARK   59  A    between atoms: _129  and  _130
REMARK   60  A    between atoms: _133  and  _135
REMARK   61  A    between atoms: _135  and  _136
REMARK   62  A    between atoms: _138  and  _140
REMARK   63  A    between atoms: _140  and  _141
REMARK   64  A    between atoms: _143  and  _145
REMARK   65  A    between atoms: _145  and  _146
REMARK   66  A    between atoms: _145  and  _148
REMARK   67  A    between atoms: _148  and  _149
REMARK   68  A    between atoms: _155  and  _157
REMARK   69  A    between atoms: _157  and  _158
REMARK   70  A    between atoms: _157  and  _160
REMARK   71  A    between atoms: _160  and  _161
REMARK   72  A    between atoms: _164  and  _166
REMARK   73  A    between atoms: _166  and  _167
REMARK   74  A    between atoms: _166  and  _169
REMARK   75  A    between atoms: _172  and  _174
REMARK   76  A    between atoms: _174  and  _175
REMARK   77  A    between atoms: _174  and  _177
REMARK   78  A    between atoms: _177  and  _178
REMARK   79  A    between atoms: _181  and  _183
REMARK   80  A    between atoms: _183  and  _184
REMARK   81  A    between atoms: _183  and  _186
REMARK   82  A    between atoms: _186  and  _187
REMARK   83  A    between atoms: _191  and  _192
REMARK   84  A    between atoms: _197  and  _199
REMARK   85  A    between atoms: _199  and  _200
REMARK   86  A    between atoms: _199  and  _202
REMARK   87  A    between atoms: _202  and  _203
REMARK   88  A    between atoms: _206  and  _208
REMARK   89  A    between atoms: _208  and  _209
REMARK   90  A    between atoms: _208  and  _211
REMARK   91  A    between atoms: _211  and  _212
REMARK   92  A    between atoms: _215  and  _217
REMARK   93  A    between atoms: _217  and  _218
REMARK   94  A    between atoms: _220  and  _222
REMARK   95  A    between atoms: _222  and  _223
REMARK   96  A    between atoms: _222  and  _225
REMARK   97  A    between atoms: _225  and  _226
REMARK   98  A    between atoms: _226  and  _227
REMARK   99  A    between atoms: _227  and  _228
REMARK  100  A    between atoms: _237  and  _239
REMARK  101  A    between atoms: _239  and  _240
REMARK  102  A    between atoms: _239  and  _242
REMARK  103  A    between atoms: _242  and  _243
REMARK  104  A    between atoms: _248  and  _250
REMARK  105  A    between atoms: _250  and  _251
REMARK  106  A    between atoms: _250  and  _253
REMARK  107  A    between atoms: _253  and  _254
REMARK  108  A    between atoms: _254  and  _255
REMARK  109  A    between atoms: _255  and  _256
REMARK  110  A    between atoms: _266  and  _267
REMARK  111  A    between atoms: _272  and  _274
REMARK  112  A    between atoms: _274  and  _275
REMARK  113  A    between atoms: _274  and  _277
REMARK  114  A    between atoms: _277  and  _278
REMARK  115  A    between atoms: _281  and  _283
REMARK  116  A    between atoms: _283  and  _284
REMARK  117  A    between atoms: _283  and  _286
REMARK  118  A    between atoms: _286  and  _287
REMARK  119  A    between atoms: _290  and  _292
REMARK  120  A    between atoms: _292  and  _293
REMARK  121  A    between atoms: _292  and  _295
REMARK  122  A    between atoms: _295  and  _296
REMARK  123  A    between atoms: _299  and  _301
REMARK  124  A    between atoms: _301  and  _302
REMARK  125  A    between atoms: _301  and  _304
REMARK  126  A    between atoms: _304  and  _305
REMARK  127  A    between atoms: _308  and  _310
REMARK  128  A    between atoms: _310  and  _311
REMARK  129  A    between atoms: _310  and  _313
REMARK  130  A    between atoms: _313  and  _314
REMARK  131  A    between atoms: _317  and  _319
REMARK  132  A    between atoms: _319  and  _320
REMARK  133  A    between atoms: _322  and  _324
REMARK  134  A    between atoms: _324  and  _325
REMARK  135  A    between atoms: _328  and  _330
REMARK  136  A    between atoms: _330  and  _331
REMARK  137  A    between atoms: _330  and  _333
REMARK  138  A    between atoms: _333  and  _334
REMARK  139  A    between atoms: _337  and  _339
REMARK  140  A    between atoms: _339  and  _340
REMARK  141  A    between atoms: _339  and  _342
REMARK  142  A    between atoms: _342  and  _343
REMARK  143  A    between atoms: _346  and  _348
REMARK  144  A    between atoms: _348  and  _349
REMARK  145  A    between atoms: _348  and  _351
REMARK  146  A    between atoms: _354  and  _356
REMARK  147  A    between atoms: _356  and  _357
REMARK  148  A    between atoms: _356  and  _359
REMARK  149  A    between atoms: _359  and  _360
REMARK  150  A    between atoms: _363  and  _365
REMARK  151  A    between atoms: _365  and  _366
REMARK  152  A    between atoms: _368  and  _370
REMARK  153  A    between atoms: _370  and  _371
REMARK  154  A    between atoms: _373  and  _375
REMARK  155  A    between atoms: _375  and  _376
REMARK  156  A    between atoms: _375  and  _378
REMARK  157  A    between atoms: _378  and  _379
REMARK  158  A    between atoms: _382  and  _384
REMARK  159  A    between atoms: _384  and  _385
REMARK  160  A    between atoms: _387  and  _389
REMARK  161  A    between atoms: _389  and  _390
REMARK  162  A    between atoms: _392  and  _394
REMARK  163  A    between atoms: _394  and  _395
REMARK  164  A    between atoms: _394  and  _397
REMARK  165  A    between atoms: _397  and  _398
REMARK  166  A    between atoms: _402  and  _403
REMARK  167  A    between atoms: _408  and  _410
REMARK  168  A    between atoms: _410  and  _411
REMARK  169  A    between atoms: _410  and  _413
REMARK  170  A    between atoms: _413  and  _414
REMARK  171  A    between atoms: _418  and  _419
REMARK  172  A    between atoms: _424  and  _426
REMARK  173  A    between atoms: _426  and  _427
REMARK  174  A    between atoms: _426  and  _429
REMARK  175  A    between atoms: _432  and  _434
REMARK  176  A    between atoms: _434  and  _435
REMARK  177  A    between atoms: _434  and  _437
REMARK  178  A    between atoms: _437  and  _438
REMARK  179  A    between atoms: _443  and  _445
REMARK  180  A    between atoms: _445  and  _446
REMARK  181  A    between atoms: _445  and  _448
REMARK  182  A    between atoms: _448  and  _449
REMARK  183  A    between atoms: _452  and  _454
REMARK  184  A    between atoms: _454  and  _455
REMARK  185  A    between atoms: _454  and  _457
REMARK  186  A    between atoms: _457  and  _458
REMARK  187  A    between atoms: _461  and  _463
REMARK  188  A    between atoms: _463  and  _464
REMARK                            x       y       z     vdW  Elec       q    Type
REMARK                         _______ _______ _______ _____ _____    ______ ____
ROOT
ATOM      1  CA  THR A   4      19.746  27.395   1.822  0.00  0.00    +0.176 C 
ENDROOT
BRANCH   1   3
ATOM      2  C   ASP A   3      17.939  26.512   0.481  0.00  0.00    +0.241 C 
ATOM      3  N   THR A   4      18.434  27.520   1.193  0.00  0.00    -0.295 N 
ATOM      4  H   THR A   4      17.887  28.398   1.302  0.00  0.00    +0.150 HD
ATOM      5  O   ASP A   3      18.523  25.444   0.376  0.00  0.00    -0.273 OA
BRANCH   2   6
ATOM      6  CA  ASP A   3      16.551  26.690  -0.139  0.00  0.00    +0.160 C 
BRANCH   6   9
ATOM      7  C   LEU A   2      16.137  28.069  -2.116  0.00  0.00    +0.241 C 
ATOM      8  O   LEU A   2      15.895  29.077  -1.448  0.00  0.00    -0.273 OA
ATOM      9  N   ASP A   3      16.520  26.914  -1.580  0.00  0.00    -0.297 N 
ATOM     10  H   ASP A   3      16.809  26.141  -2.213  0.00  0.00    +0.150 HD
BRANCH   7  11
ATOM     11  CA  LEU A   2      16.042  28.097  -3.637  0.00  0.00    +0.149 C 
BRANCH  11  14
ATOM     12  C   LEU A   1      13.884  26.953  -3.758  0.00  0.00    +0.238 C 
ATOM     13  O   LEU A   1      14.397  25.877  -3.439  0.00  0.00    -0.274 OA
ATOM     14  N   LEU A   2      14.602  28.070  -3.918  0.00  0.00    -0.297 N 
ATOM     15  H   LEU A   2      14.131  28.936  -4.248  0.00  0.00    +0.150 HD
BRANCH  12  16
ATOM     16  CA  LEU A   1      12.370  27.026  -4.025  0.00  0.00    +0.145 C 
BRANCH  16  17
ATOM     17  N   LEU A   1      11.943  26.060  -5.020  0.00  0.00    -0.238 NA
ATOM     18  H   LEU A   1      11.686  25.106  -4.696  0.00  0.00    +0.142 HD
ENDBRANCH  16  17
BRANCH  16  19
ATOM     19  CB  LEU A   1      11.601  26.729  -2.734  0.00  0.00    +0.026 C 
BRANCH  19  20
ATOM     20  CG  LEU A   1      11.676  27.617  -1.496  0.00  0.00    +0.002 C 
ATOM     21  CD2 LEU A   1      10.955  26.923  -0.353  0.00  0.00    +0.000 C 
ATOM     22  CD1 LEU A   1      11.026  28.952  -1.784  0.00  0.00    +0.000 C 
ENDBRANCH  19  20
ENDBRANCH  16  19
ENDBRANCH  12  16
ENDBRANCH  11  14
BRANCH  11  23
ATOM     23  CB  LEU A   2      16.694  29.360  -4.209  0.00  0.00    +0.029 C 
BRANCH  23  24
ATOM     24  CG  LEU A   2      16.540  29.539  -5.722  0.00  0.00    +0.002 C 
ATOM     25  CD2 LEU A   2      17.344  30.732  -6.193  0.00  0.00    +0.000 C 
ATOM     26  CD1 LEU A   2      16.997  28.293  -6.454  0.00  0.00    +0.000 C 
ENDBRANCH  23  24
ENDBRANCH  11  23
ENDBRANCH   7  11
ENDBRANCH   6   9
BRANCH   6  27
ATOM     27  CB  ASP A   3      15.685  25.440   0.112  0.00  0.00    +0.143 C 
BRANCH  27  28
ATOM     28  CG  ASP A   3      15.325  25.224   1.561  0.00  0.00    +0.367 C 
ATOM     29  OD2 ASP A   3      15.806  25.931   2.467  0.00  0.00    -0.246 OA
ATOM     30  OD1 ASP A   3      14.535  24.296   1.789  0.00  0.00    -0.246 OA
ENDBRANCH  27  28
ENDBRANCH   6  27
ENDBRANCH   2   6
ENDBRANCH   1   3
BRANCH   1  31
ATOM     31  C   THR A   4      19.648  26.549   3.086  0.00  0.00    +0.243 C 
ATOM     32  O   THR A   4      20.656  26.125   3.649  0.00  0.00    -0.273 OA
ATOM     33  N   GLY A   5      18.423  26.314   3.538  0.00  0.00    -0.295 N 
ATOM     34  H   GLY A   5      17.602  26.706   3.034  0.00  0.00    +0.150 HD
BRANCH  33  35
ATOM     35  CA  GLY A   5      18.223  25.516   4.728  0.00  0.00    +0.176 C 
BRANCH  35  36
ATOM     36  C   GLY A   5      18.212  24.035   4.399  0.00  0.00    +0.243 C 
ATOM     37  O   GLY A   5      18.071  23.198   5.287  0.00  0.00    -0.273 OA
ATOM     38  N   ALA A   6      18.375  23.709   3.127  0.00  0.00    -0.297 N 
ATOM     39  H   ALA A   6      18.515  24.466   2.427  0.00  0.00    +0.150 HD
BRANCH  38  40
ATOM     40  CA  ALA A   6      18.364  22.322   2.675  0.00  0.00    +0.149 C 
ATOM     41  CB  ALA A   6      17.359  22.172   1.532  0.00  0.00    +0.031 C 
BRANCH  40  42
ATOM     42  C   ALA A   6      19.720  21.779   2.225  0.00  0.00    +0.241 C 
ATOM     43  N   ASP A   7      20.143  20.655   2.802  0.00  0.00    -0.297 N 
ATOM     44  H   ASP A   7      19.572  20.224   3.556  0.00  0.00    +0.150 HD
ATOM     45  O   ALA A   6      20.377  22.376   1.376  0.00  0.00    -0.273 OA
BRANCH  43  46
ATOM     46  CA  ASP A   7      21.396  20.014   2.396  0.00  0.00    +0.160 C 
BRANCH  46  47
ATOM     47  C   ASP A   7      21.259  19.500   0.969  0.00  0.00    +0.241 C 
ATOM     48  N   ASP A   8      20.123  18.861   0.689  0.00  0.00    -0.298 N 
ATOM     49  H   ASP A   8      19.394  18.794   1.428  0.00  0.00    +0.150 HD
ATOM     50  O   ASP A   7      22.153  19.687   0.142  0.00  0.00    -0.273 OA
BRANCH  48  51
ATOM     51  CA  ASP A   8      19.857  18.249  -0.617  0.00  0.00    +0.148 C 
BRANCH  51  52
ATOM     52  C   ASP A   8      18.706  18.837  -1.436  0.00  0.00    +0.227 C 
ATOM     53  O   ASP A   8      17.894  19.612  -0.926  0.00  0.00    -0.286 OA
ENDBRANCH  51  52
BRANCH  51  54
ATOM     54  CB  ASP A   8      19.577  16.756  -0.413  0.00  0.00    +0.142 C 
BRANCH  54  55
ATOM     55  CG  ASP A   8      20.426  16.142   0.689  0.00  0.00    +0.367 C 
ATOM     56  OD2 ASP A   8      19.852  15.661   1.692  0.00  0.00    -0.246 OA
ATOM     57  OD1 ASP A   8      21.664  16.161   0.558  0.00  0.00    -0.246 OA
ENDBRANCH  54  55
ENDBRANCH  51  54
ENDBRANCH  48  51
ENDBRANCH  46  47
BRANCH  46  58
ATOM     58  CB  ASP A   7      21.704  18.786   3.261  0.00  0.00    +0.143 C 
BRANCH  58  59
ATOM     59  CG  ASP A   7      21.964  19.121   4.716  0.00  0.00    +0.367 C 
ATOM     60  OD2 ASP A   7      21.930  18.173   5.532  0.00  0.00    -0.246 OA
ATOM     61  OD1 ASP A   7      22.212  20.300   5.049  0.00  0.00    -0.246 OA
ENDBRANCH  58  59
ENDBRANCH  46  58
ENDBRANCH  43  46
ENDBRANCH  40  42
ENDBRANCH  38  40
ENDBRANCH  35  36
ENDBRANCH  33  35
ENDBRANCH   1  31
BRANCH   1  62
ATOM     62  CB  THR A   4      20.365  28.766   2.172  0.00  0.00    +0.137 C 
ATOM     63  CG2 THR A   4      20.447  29.653   0.934  0.00  0.00    +0.034 C 
BRANCH  62  64
ATOM     64  OG1 THR A   4      19.571  29.418   3.168  0.00  0.00    -0.382 OA
ATOM     65  HG1 THR A   4      19.538  28.856   3.982  0.00  0.00    +0.210 HD
ENDBRANCH  62  64
ENDBRANCH   1  62
TORSDOF 28
REMARK  Name = ../refined-set-2016/1a30/1a30_pocket.pdb
REMARK  188 active torsions:
REMARK  status: ('A' for Active; 'I' for Inactive)
REMARK    1  A    between atoms: _1  and  _3
REMARK    2  A    between atoms: _3  and  _4
REMARK    3  A    between atoms: _3  and  _6
REMARK    4  A    between atoms: _6  and  _7
REMARK    5  A    between atoms: _10  and  _12
REMARK    6  A    between atoms: _12  and  _13
REMARK    7  A    between atoms: _12  and  _15
REMARK    8  A    between atoms: _15  and  _16
REMARK    9  A    between atoms: _19  and  _21
REMARK   10  A    between atoms: _21  and  _22
REMARK   11  A    between atoms: _21  and  _24
REMARK   12  A    between atoms: _24  and  _25
REMARK   13  A    between atoms: _28  and  _30
REMARK   14  A    between atoms: _30  and  _31
REMARK   15  A    between atoms: _30  and  _33
REMARK   16  A    between atoms: _33  and  _34
REMARK   17  A    between atoms: _37  and  _39
REMARK   18  A    between atoms: _39  and  _40
REMARK   19  A    between atoms: _42  and  _44
REMARK   20  A    between atoms: _44  and  _45
REMARK   21  A    between atoms: _48  and  _50
REMARK   22  A    between atoms: _50  and  _51
REMARK   23  A    between atoms: _50  and  _53
REMARK   24  A    between atoms: _53  and  _54
REMARK   25  A    between atoms: _57  and  _59
REMARK   26  A    between atoms: _59  and  _60
REMARK   27  A    between atoms: _59  and  _62
REMARK   28  A    between atoms: _62  and  _63
REMARK   29  A    between atoms: _66  and  _68
REMARK   30  A    between atoms: _68  and  _69
REMARK   31  A    between atoms: _68  and  _71
REMARK   32  A    between atoms: _71  and  _72
REMARK   33  A    between atoms: _75  and  _77
REMARK   34  A    between atoms: _77  and  _78
REMARK   35  A    between atoms: _77  and  _80
REMARK   36  A    between atoms: _83  and  _85
REMARK   37  A    between atoms: _85  and  _86
REMARK   38  A    between atoms: _85  and  _88
REMARK   39  A    between atoms: _88  and  _89
REMARK   40  A    between atoms: _89  and  _90
REMARK   41  A    between atoms: _90  and  _91
REMARK   42  A    between atoms: _91  and  _92
REMARK   43  A    between atoms: _96  and  _98
REMARK   44  A    between atoms: _98  and  _99
REMARK   45  A    between atoms: _98  and  _101
REMARK   46  A    between atoms: _101  and  _102
REMARK   47  A    between atoms: _102  and  _103
REMARK   48  A    between atoms: _105  and  _107
REMARK   49  A    between atoms: _107  and  _108
REMARK   50  A    between atoms: _107  and  _110
REMARK   51  A    between atoms: _110  and  _111
REMARK   52  A    between atoms: _114  and  _116
REMARK   53  A    between atoms: _116  and  _117
REMARK   54  A    between atoms: _119  and  _121
REMARK   55  A    between atoms: _121  and  _122
REMARK   56  A    between atoms: _124  and  _126
REMARK   57  A    between atoms: _126  and  _127
REMARK   58  A    between atoms: _126  and  _129
REMARK   59  A    between atoms: _129  and  _130
REMARK   60  A    between atoms: _133  and  _135
REMARK   61  A    between atoms: _135  and  _136
REMARK   62  A    between atoms: _138  and  _140
REMARK   63  A    between atoms: _140  and  _141
REMARK   64  A    between atoms: _143  and  _145
REMARK   65  A    between atoms: _145  and  _146
REMARK   66  A    between atoms: _145  and  _148
REMARK   67  A    between atoms: _148  and  _149
REMARK   68  A    between atoms: _155  and  _157
REMARK   69  A    between atoms: _157  and  _158
REMARK   70  A    between atoms: _157  and  _160
REMARK   71  A    between atoms: _160  and  _161
REMARK   72  A    between atoms: _164  and  _166
REMARK   73  A    between atoms: _166  and  _167
REMARK   74  A    between atoms: _166  and  _169
REMARK   75  A    between atoms: _172  and  _174
REMARK   76  A    between atoms: _174  and  _175
REMARK   77  A    between atoms: _174  and  _177
REMARK   78  A    between atoms: _177  and  _178
REMARK   79  A    between atoms: _181  and  _183
REMARK   80  A    between atoms: _183  and  _184
REMARK   81  A    between atoms: _183  and  _186
REMARK   82  A    between atoms: _186  and  _187
REMARK   83  A    between atoms: _191  and  _192
REMARK   84  A    between atoms: _197  and  _199
REMARK   85  A    between atoms: _199  and  _200
REMARK   86  A    between atoms: _199  and  _202
REMARK   87  A    between atoms: _202  and  _203
REMARK   88  A    between atoms: _206  and  _208
REMARK   89  A    between atoms: _208  and  _209
REMARK   90  A    between atoms: _208  and  _211
REMARK   91  A    between atoms: _211  and  _212
REMARK   92  A    between atoms: _215  and  _217
REMARK   93  A    between atoms: _217  and  _218
REMARK   94  A    between atoms: _220  and  _222
REMARK   95  A    between atoms: _222  and  _223
REMARK   96  A    between atoms: _222  and  _225
REMARK   97  A    between atoms: _225  and  _226
REMARK   98  A    between atoms: _226  and  _227
REMARK   99  A    between atoms: _227  and  _228
REMARK  100  A    between atoms: _237  and  _239
REMARK  101  A    between atoms: _239  and  _240
REMARK  102  A    between atoms: _239  and  _242
REMARK  103  A    between atoms: _242  and  _243
REMARK  104  A    between atoms: _248  and  _250
REMARK  105  A    between atoms: _250  and  _251
REMARK  106  A    between atoms: _250  and  _253
REMARK  107  A    between atoms: _253  and  _254
REMARK  108  A    between atoms: _254  and  _255
REMARK  109  A    between atoms: _255  and  _256
REMARK  110  A    between atoms: _266  and  _267
REMARK  111  A    between atoms: _272  and  _274
REMARK  112  A    between atoms: _274  and  _275
REMARK  113  A    between atoms: _274  and  _277
REMARK  114  A    between atoms: _277  and  _278
REMARK  115  A    between atoms: _281  and  _283
REMARK  116  A    between atoms: _283  and  _284
REMARK  117  A    between atoms: _283  and  _286
REMARK  118  A    between atoms: _286  and  _287
REMARK  119  A    between atoms: _290  and  _292
REMARK  120  A    between atoms: _292  and  _293
REMARK  121  A    between atoms: _292  and  _295
REMARK  122  A    between atoms: _295  and  _296
REMARK  123  A    between atoms: _299  and  _301
REMARK  124  A    between atoms: _301  and  _302
REMARK  125  A    between atoms: _301  and  _304
REMARK  126  A    between atoms: _304  and  _305
REMARK  127  A    between atoms: _308  and  _310
REMARK  128  A    between atoms: _310  and  _311
REMARK  129  A    between atoms: _310  and  _313
REMARK  130  A    between atoms: _313  and  _314
REMARK  131  A    between atoms: _317  and  _319
REMARK  132  A    between atoms: _319  and  _320
REMARK  133  A    between atoms: _322  and  _324
REMARK  134  A    between atoms: _324  and  _325
REMARK  135  A    between atoms: _328  and  _330
REMARK  136  A    between atoms: _330  and  _331
REMARK  137  A    between atoms: _330  and  _333
REMARK  138  A    between atoms: _333  and  _334
REMARK  139  A    between atoms: _337  and  _339
REMARK  140  A    between atoms: _339  and  _340
REMARK  141  A    between atoms: _339  and  _342
REMARK  142  A    between atoms: _342  and  _343
REMARK  143  A    between atoms: _346  and  _348
REMARK  144  A    between atoms: _348  and  _349
REMARK  145  A    between atoms: _348  and  _351
REMARK  146  A    between atoms: _354  and  _356
REMARK  147  A    between atoms: _356  and  _357
REMARK  148  A    between atoms: _356  and  _359
REMARK  149  A    between atoms: _359  and  _360
REMARK  150  A    between atoms: _363  and  _365
REMARK  151  A    between atoms: _365  and  _366
REMARK  152  A    between atoms: _368  and  _370
REMARK  153  A    between atoms: _370  and  _371
REMARK  154  A    between atoms: _373  and  _375
REMARK  155  A    between atoms: _375  and  _376
REMARK  156  A    between atoms: _375  and  _378
REMARK  157  A    between atoms: _378  and  _379
REMARK  158  A    between atoms: _382  and  _384
REMARK  159  A    between atoms: _384  and  _385
REMARK  160  A    between atoms: _387  and  _389
REMARK  161  A    between atoms: _389  and  _390
REMARK  162  A    between atoms: _392  and  _394
REMARK  163  A    between atoms: _394  and  _395
REMARK  164  A    between atoms: _394  and  _397
REMARK  165  A    between atoms: _397  and  _398
REMARK  166  A    between atoms: _402  and  _403
REMARK  167  A    between atoms: _408  and  _410
REMARK  168  A    between atoms: _410  and  _411
REMARK  169  A    between atoms: _410  and  _413
REMARK  170  A    between atoms: _413  and  _414
REMARK  171  A    between atoms: _418  and  _419
REMARK  172  A    between atoms: _424  and  _426
REMARK  173  A    between atoms: _426  and  _427
REMARK  174  A    between atoms: _426  and  _429
REMARK  175  A    between atoms: _432  and  _434
REMARK  176  A    between atoms: _434  and  _435
REMARK  177  A    between atoms: _434  and  _437
REMARK  178  A    between atoms: _437  and  _438
REMARK  179  A    between atoms: _443  and  _445
REMARK  180  A    between atoms: _445  and  _446
REMARK  181  A    between atoms: _445  and  _448
REMARK  182  A    between atoms: _448  and  _449
REMARK  183  A    between atoms: _452  and  _454
REMARK  184  A    between atoms: _454  and  _455
REMARK  185  A    between atoms: _454  and  _457
REMARK  186  A    between atoms: _457  and  _458
REMARK  187  A    between atoms: _461  and  _463
REMARK  188  A    between atoms: _463  and  _464
REMARK                            x       y       z     vdW  Elec       q    Type
REMARK                         _______ _______ _______ _____ _____    ______ ____
ROOT
ATOM      1  CA  VAL A   1      14.202  17.214  -3.273  0.00  0.00    +0.133 C 
ENDROOT
BRANCH   1   2
ATOM      2  CB  VAL A   1      13.620  17.083  -1.836  0.00  0.00    +0.023 C 
ATOM      3  CG2 VAL A   1      14.739  16.917  -0.819  0.00  0.00    +0.002 C 
ATOM      4  CG1 VAL A   1      12.652  15.916  -1.758  0.00  0.00    +0.002 C 
ENDBRANCH   1   2
BRANCH   1   5
ATOM      5  N   VAL A   1      15.320  18.149  -3.301  0.00  0.00    -0.239 NA
ATOM      6  H   VAL A   1      15.162  19.131  -2.998  0.00  0.00    +0.142 HD
ENDBRANCH   1   5
BRANCH   1   7
ATOM      7  C   VAL A   1      13.107  17.691  -4.232  0.00  0.00    +0.224 C 
ATOM      8  O   VAL A   1      12.668  18.842  -4.171  0.00  0.00    -0.287 OA
ENDBRANCH   1   7
TORSDOF 3
REMARK  Name = ../refined-set-2016/1a30/1a30_pocket.pdb
REMARK  188 active torsions:
REMARK  status: ('A' for Active; 'I' for Inactive)
REMARK    1  A    between atoms: _1  and  _3
REMARK    2  A    between atoms: _3  and  _4
REMARK    3  A    between atoms: _3  and  _6
REMARK    4  A    between atoms: _6  and  _7
REMARK    5  A    between atoms: _10  and  _12
REMARK    6  A    between atoms: _12  and  _13
REMARK    7  A    between atoms: _12  and  _15
REMARK    8  A    between atoms: _15  and  _16
REMARK    9  A    between atoms: _19  and  _21
REMARK   10  A    between atoms: _21  and  _22
REMARK   11  A    between atoms: _21  and  _24
REMARK   12  A    between atoms: _24  and  _25
REMARK   13  A    between atoms: _28  and  _30
REMARK   14  A    between atoms: _30  and  _31
REMARK   15  A    between atoms: _30  and  _33
REMARK   16  A    between atoms: _33  and  _34
REMARK   17  A    between atoms: _37  and  _39
REMARK   18  A    between atoms: _39  and  _40
REMARK   19  A    between atoms: _42  and  _44
REMARK   20  A    between atoms: _44  and  _45
REMARK   21  A    between atoms: _48  and  _50
REMARK   22  A    between atoms: _50  and  _51
REMARK   23  A    between atoms: _50  and  _53
REMARK   24  A    between atoms: _53  and  _54
REMARK   25  A    between atoms: _57  and  _59
REMARK   26  A    between atoms: _59  and  _60
REMARK   27  A    between atoms: _59  and  _62
REMARK   28  A    between atoms: _62  and  _63
REMARK   29  A    between atoms: _66  and  _68
REMARK   30  A    between atoms: _68  and  _69
REMARK   31  A    between atoms: _68  and  _71
REMARK   32  A    between atoms: _71  and  _72
REMARK   33  A    between atoms: _75  and  _77
REMARK   34  A    between atoms: _77  and  _78
REMARK   35  A    between atoms: _77  and  _80
REMARK   36  A    between atoms: _83  and  _85
REMARK   37  A    between atoms: _85  and  _86
REMARK   38  A    between atoms: _85  and  _88
REMARK   39  A    between atoms: _88  and  _89
REMARK   40  A    between atoms: _89  and  _90
REMARK   41  A    between atoms: _90  and  _91
REMARK   42  A    between atoms: _91  and  _92
REMARK   43  A    between atoms: _96  and  _98
REMARK   44  A    between atoms: _98  and  _99
REMARK   45  A    between atoms: _98  and  _101
REMARK   46  A    between atoms: _101  and  _102
REMARK   47  A    between atoms: _102  and  _103
REMARK   48  A    between atoms: _105  and  _107
REMARK   49  A    between atoms: _107  and  _108
REMARK   50  A    between atoms: _107  and  _110
REMARK   51  A    between atoms: _110  and  _111
REMARK   52  A    between atoms: _114  and  _116
REMARK   53  A    between atoms: _116  and  _117
REMARK   54  A    between atoms: _119  and  _121
REMARK   55  A    between atoms: _121  and  _122
REMARK   56  A    between atoms: _124  and  _126
REMARK   57  A    between atoms: _126  and  _127
REMARK   58  A    between atoms: _126  and  _129
REMARK   59  A    between atoms: _129  and  _130
REMARK   60  A    between atoms: _133  and  _135
REMARK   61  A    between atoms: _135  and  _136
REMARK   62  A    between atoms: _138  and  _140
REMARK   63  A    between atoms: _140  and  _141
REMARK   64  A    between atoms: _143  and  _145
REMARK   65  A    between atoms: _145  and  _146
REMARK   66  A    between atoms: _145  and  _148
REMARK   67  A    between atoms: _148  and  _149
REMARK   68  A    between atoms: _155  and  _157
REMARK   69  A    between atoms: _157  and  _158
REMARK   70  A    between atoms: _157  and  _160
REMARK   71  A    between atoms: _160  and  _161
REMARK   72  A    between atoms: _164  and  _166
REMARK   73  A    between atoms: _166  and  _167
REMARK   74  A    between atoms: _166  and  _169
REMARK   75  A    between atoms: _172  and  _174
REMARK   76  A    between atoms: _174  and  _175
REMARK   77  A    between atoms: _174  and  _177
REMARK   78  A    between atoms: _177  and  _178
REMARK   79  A    between atoms: _181  and  _183
REMARK   80  A    between atoms: _183  and  _184
REMARK   81  A    between atoms: _183  and  _186
REMARK   82  A    between atoms: _186  and  _187
REMARK   83  A    between atoms: _191  and  _192
REMARK   84  A    between atoms: _197  and  _199
REMARK   85  A    between atoms: _199  and  _200
REMARK   86  A    between atoms: _199  and  _202
REMARK   87  A    between atoms: _202  and  _203
REMARK   88  A    between atoms: _206  and  _208
REMARK   89  A    between atoms: _208  and  _209
REMARK   90  A    between atoms: _208  and  _211
REMARK   91  A    between atoms: _211  and  _212
REMARK   92  A    between atoms: _215  and  _217
REMARK   93  A    between atoms: _217  and  _218
REMARK   94  A    between atoms: _220  and  _222
REMARK   95  A    between atoms: _222  and  _223
REMARK   96  A    between atoms: _222  and  _225
REMARK   97  A    between atoms: _225  and  _226
REMARK   98  A    between atoms: _226  and  _227
REMARK   99  A    between atoms: _227  and  _228
REMARK  100  A    between atoms: _237  and  _239
REMARK  101  A    between atoms: _239  and  _240
REMARK  102  A    between atoms: _239  and  _242
REMARK  103  A    between atoms: _242  and  _243
REMARK  104  A    between atoms: _248  and  _250
REMARK  105  A    between atoms: _250  and  _251
REMARK  106  A    between atoms: _250  and  _253
REMARK  107  A    between atoms: _253  and  _254
REMARK  108  A    between atoms: _254  and  _255
REMARK  109  A    between atoms: _255  and  _256
REMARK  110  A    between atoms: _266  and  _267
REMARK  111  A    between atoms: _272  and  _274
REMARK  112  A    between atoms: _274  and  _275
REMARK  113  A    between atoms: _274  and  _277
REMARK  114  A    between atoms: _277  and  _278
REMARK  115  A    between atoms: _281  and  _283
REMARK  116  A    between atoms: _283  and  _284
REMARK  117  A    between atoms: _283  and  _286
REMARK  118  A    between atoms: _286  and  _287
REMARK  119  A    between atoms: _290  and  _292
REMARK  120  A    between atoms: _292  and  _293
REMARK  121  A    between atoms: _292  and  _295
REMARK  122  A    between atoms: _295  and  _296
REMARK  123  A    between atoms: _299  and  _301
REMARK  124  A    between atoms: _301  and  _302
REMARK  125  A    between atoms: _301  and  _304
REMARK  126  A    between atoms: _304  and  _305
REMARK  127  A    between atoms: _308  and  _310
REMARK  128  A    between atoms: _310  and  _311
REMARK  129  A    between atoms: _310  and  _313
REMARK  130  A    between atoms: _313  and  _314
REMARK  131  A    between atoms: _317  and  _319
REMARK  132  A    between atoms: _319  and  _320
REMARK  133  A    between atoms: _322  and  _324
REMARK  134  A    between atoms: _324  and  _325
REMARK  135  A    between atoms: _328  and  _330
REMARK  136  A    between atoms: _330  and  _331
REMARK  137  A    between atoms: _330  and  _333
REMARK  138  A    between atoms: _333  and  _334
REMARK  139  A    between atoms: _337  and  _339
REMARK  140  A    between atoms: _339  and  _340
REMARK  141  A    between atoms: _339  and  _342
REMARK  142  A    between atoms: _342  and  _343
REMARK  143  A    between atoms: _346  and  _348
REMARK  144  A    between atoms: _348  and  _349
REMARK  145  A    between atoms: _348  and  _351
REMARK  146  A    between atoms: _354  and  _356
REMARK  147  A    between atoms: _356  and  _357
REMARK  148  A    between atoms: _356  and  _359
REMARK  149  A    between atoms: _359  and  _360
REMARK  150  A    between atoms: _363  and  _365
REMARK  151  A    between atoms: _365  and  _366
REMARK  152  A    between atoms: _368  and  _370
REMARK  153  A    between atoms: _370  and  _371
REMARK  154  A    between atoms: _373  and  _375
REMARK  155  A    between atoms: _375  and  _376
REMARK  156  A    between atoms: _375  and  _378
REMARK  157  A    between atoms: _378  and  _379
REMARK  158  A    between atoms: _382  and  _384
REMARK  159  A    between atoms: _384  and  _385
REMARK  160  A    between atoms: _387  and  _389
REMARK  161  A    between atoms: _389  and  _390
REMARK  162  A    between atoms: _392  and  _394
REMARK  163  A    between atoms: _394  and  _395
REMARK  164  A    between atoms: _394  and  _397
REMARK  165  A    between atoms: _397  and  _398
REMARK  166  A    between atoms: _402  and  _403
REMARK  167  A    between atoms: _408  and  _410
REMARK  168  A    between atoms: _410  and  _411
REMARK  169  A    between atoms: _410  and  _413
REMARK  170  A    between atoms: _413  and  _414
REMARK  171  A    between atoms: _418  and  _419
REMARK  172  A    between atoms: _424  and  _426
REMARK  173  A    between atoms: _426  and  _427
REMARK  174  A    between atoms: _426  and  _429
REMARK  175  A    between atoms: _432  and  _434
REMARK  176  A    between atoms: _434  and  _435
REMARK  177  A    between atoms: _434  and  _437
REMARK  178  A    between atoms: _437  and  _438
REMARK  179  A    between atoms: _443  and  _445
REMARK  180  A    between atoms: _445  and  _446
REMARK  181  A    between atoms: _445  and  _448
REMARK  182  A    between atoms: _448  and  _449
REMARK  183  A    between atoms: _452  and  _454
REMARK  184  A    between atoms: _454  and  _455
REMARK  185  A    between atoms: _454  and  _457
REMARK  186  A    between atoms: _457  and  _458
REMARK  187  A    between atoms: _461  and  _463
REMARK  188  A    between atoms: _463  and  _464
REMARK                            x       y       z     vdW  Elec       q    Type
REMARK                         _______ _______ _______ _____ _____    ______ ____
ROOT
ATOM      1  C   GLY A   3      11.950  18.706   9.189  0.00  0.00    +0.243 C 
ATOM      2  O   GLY A   3      12.122  18.128  10.262  0.00  0.00    -0.273 OA
ATOM      3  N   ILE A   4      11.166  19.768   9.065  0.00  0.00    -0.297 N 
ATOM      4  H   ILE A   4      11.009  20.174   8.120  0.00  0.00    +0.150 HD
ENDROOT
BRANCH   3   5
ATOM      5  CA  ILE A   4      10.519  20.381  10.214  0.00  0.00    +0.149 C 
BRANCH   5   6
ATOM      6  C   ILE A   4       9.520  19.440  10.882  0.00  0.00    +0.241 C 
ATOM      7  O   ILE A   4       9.485  19.338  12.107  0.00  0.00    -0.273 OA
ATOM      8  N   GLY A   5       8.764  18.702  10.073  0.00  0.00    -0.295 N 
ATOM      9  H   GLY A   5       8.897  18.767   9.044  0.00  0.00    +0.150 HD
BRANCH   8  10
ATOM     10  CA  GLY A   5       7.754  17.806  10.612  0.00  0.00    +0.176 C 
BRANCH  10  11
ATOM     11  C   GLY A   5       8.164  16.385  10.946  0.00  0.00    +0.243 C 
ATOM     12  O   GLY A   5       7.416  15.669  11.607  0.00  0.00    -0.273 OA
ATOM     13  N   GLY A   6       9.328  15.961  10.472  0.00  0.00    -0.296 N 
ATOM     14  H   GLY A   6       9.916  16.600   9.900  0.00  0.00    +0.150 HD
BRANCH  13  15
ATOM     15  CA  GLY A   6       9.785  14.613  10.747  0.00  0.00    +0.163 C 
BRANCH  15  16
ATOM     16  C   GLY A   6      10.621  14.081   9.603  0.00  0.00    +0.229 C 
ATOM     17  O   GLY A   6      11.228  14.855   8.863  0.00  0.00    -0.286 OA
ENDBRANCH  15  16
ENDBRANCH  13  15
ENDBRANCH  10  11
ENDBRANCH   8  10
ENDBRANCH   5   6
BRANCH   5  18
ATOM     18  CB  ILE A   4       9.818  21.719   9.808  0.00  0.00    +0.027 C 
ATOM     19  CG2 ILE A   4       8.539  21.460   9.024  0.00  0.00    +0.002 C 
BRANCH  18  20
ATOM     20  CG1 ILE A   4       9.527  22.571  11.042  0.00  0.00    +0.002 C 
ATOM     21  CD1 ILE A   4      10.732  23.288  11.557  0.00  0.00    +0.000 C 
ENDBRANCH  18  20
ENDBRANCH   5  18
ENDBRANCH   3   5
BRANCH   1  22
ATOM     22  CA  GLY A   3      12.579  18.174   7.918  0.00  0.00    +0.176 C 
BRANCH  22  24
ATOM     23  C   GLY A   2      14.217  16.401   7.645  0.00  0.00    +0.243 C 
ATOM     24  N   GLY A   3      13.064  16.827   8.152  0.00  0.00    -0.295 N 
ATOM     25  H   GLY A   3      12.495  16.177   8.732  0.00  0.00    +0.150 HD
ATOM     26  O   GLY A   2      14.936  17.093   6.933  0.00  0.00    -0.273 OA
BRANCH  23  27
ATOM     27  CA  GLY A   2      14.608  14.977   7.972  0.00  0.00    +0.176 C 
BRANCH  27  29
ATOM     28  C   ILE A   1      14.832  13.491   6.077  0.00  0.00    +0.238 C 
ATOM     29  N   GLY A   2      15.379  14.381   6.899  0.00  0.00    -0.296 N 
ATOM     30  H   GLY A   2      16.374  14.654   6.770  0.00  0.00    +0.150 HD
ATOM     31  O   ILE A   1      13.681  13.068   6.207  0.00  0.00    -0.274 OA
BRANCH  28  32
ATOM     32  CA  ILE A   1      15.742  12.932   4.992  0.00  0.00    +0.145 C 
BRANCH  32  33
ATOM     33  N   ILE A   1      15.412  11.535   4.742  0.00  0.00    -0.238 NA
ATOM     34  H   ILE A   1      14.431  11.271   4.521  0.00  0.00    +0.142 HD
ENDBRANCH  32  33
BRANCH  32  35
ATOM     35  CB  ILE A   1      15.672  13.795   3.703  0.00  0.00    +0.025 C 
ATOM     36  CG2 ILE A   1      16.678  13.283   2.686  0.00  0.00    +0.002 C 
BRANCH  35  37
ATOM     37  CG1 ILE A   1      14.260  13.803   3.118  0.00  0.00    +0.002 C 
ATOM     38  CD1 ILE A   1      14.131  14.632   1.853  0.00  0.00    +0.000 C 
ENDBRANCH  35  37
ENDBRANCH  32  35
ENDBRANCH  28  32
ENDBRANCH  27  29
ENDBRANCH  23  27
ENDBRANCH  22  24
ENDBRANCH   1  22
TORSDOF 16
REMARK  Name = ../refined-set-2016/1a30/1a30_pocket.pdb
REMARK  188 active torsions:
REMARK  status: ('A' for Active; 'I' for Inactive)
REMARK    1  A    between atoms: _1  and  _3
REMARK    2  A    between atoms: _3  and  _4
REMARK    3  A    between atoms: _3  and  _6
REMARK    4  A    between atoms: _6  and  _7
REMARK    5  A    between atoms: _10  and  _12
REMARK    6  A    between atoms: _12  and  _13
REMARK    7  A    between atoms: _12  and  _15
REMARK    8  A    between atoms: _15  and  _16
REMARK    9  A    between atoms: _19  and  _21
REMARK   10  A    between atoms: _21  and  _22
REMARK   11  A    between atoms: _21  and  _24
REMARK   12  A    between atoms: _24  and  _25
REMARK   13  A    between atoms: _28  and  _30
REMARK   14  A    between atoms: _30  and  _31
REMARK   15  A    between atoms: _30  and  _33
REMARK   16  A    between atoms: _33  and  _34
REMARK   17  A    between atoms: _37  and  _39
REMARK   18  A    between atoms: _39  and  _40
REMARK   19  A    between atoms: _42  and  _44
REMARK   20  A    between atoms: _44  and  _45
REMARK   21  A    between atoms: _48  and  _50
REMARK   22  A    between atoms: _50  and  _51
REMARK   23  A    between atoms: _50  and  _53
REMARK   24  A    between atoms: _53  and  _54
REMARK   25  A    between atoms: _57  and  _59
REMARK   26  A    between atoms: _59  and  _60
REMARK   27  A    between atoms: _59  and  _62
REMARK   28  A    between atoms: _62  and  _63
REMARK   29  A    between atoms: _66  and  _68
REMARK   30  A    between atoms: _68  and  _69
REMARK   31  A    between atoms: _68  and  _71
REMARK   32  A    between atoms: _71  and  _72
REMARK   33  A    between atoms: _75  and  _77
REMARK   34  A    between atoms: _77  and  _78
REMARK   35  A    between atoms: _77  and  _80
REMARK   36  A    between atoms: _83  and  _85
REMARK   37  A    between atoms: _85  and  _86
REMARK   38  A    between atoms: _85  and  _88
REMARK   39  A    between atoms: _88  and  _89
REMARK   40  A    between atoms: _89  and  _90
REMARK   41  A    between atoms: _90  and  _91
REMARK   42  A    between atoms: _91  and  _92
REMARK   43  A    between atoms: _96  and  _98
REMARK   44  A    between atoms: _98  and  _99
REMARK   45  A    between atoms: _98  and  _101
REMARK   46  A    between atoms: _101  and  _102
REMARK   47  A    between atoms: _102  and  _103
REMARK   48  A    between atoms: _105  and  _107
REMARK   49  A    between atoms: _107  and  _108
REMARK   50  A    between atoms: _107  and  _110
REMARK   51  A    between atoms: _110  and  _111
REMARK   52  A    between atoms: _114  and  _116
REMARK   53  A    between atoms: _116  and  _117
REMARK   54  A    between atoms: _119  and  _121
REMARK   55  A    between atoms: _121  and  _122
REMARK   56  A    between atoms: _124  and  _126
REMARK   57  A    between atoms: _126  and  _127
REMARK   58  A    between atoms: _126  and  _129
REMARK   59  A    between atoms: _129  and  _130
REMARK   60  A    between atoms: _133  and  _135
REMARK   61  A    between atoms: _135  and  _136
REMARK   62  A    between atoms: _138  and  _140
REMARK   63  A    between atoms: _140  and  _141
REMARK   64  A    between atoms: _143  and  _145
REMARK   65  A    between atoms: _145  and  _146
REMARK   66  A    between atoms: _145  and  _148
REMARK   67  A    between atoms: _148  and  _149
REMARK   68  A    between atoms: _155  and  _157
REMARK   69  A    between atoms: _157  and  _158
REMARK   70  A    between atoms: _157  and  _160
REMARK   71  A    between atoms: _160  and  _161
REMARK   72  A    between atoms: _164  and  _166
REMARK   73  A    between atoms: _166  and  _167
REMARK   74  A    between atoms: _166  and  _169
REMARK   75  A    between atoms: _172  and  _174
REMARK   76  A    between atoms: _174  and  _175
REMARK   77  A    between atoms: _174  and  _177
REMARK   78  A    between atoms: _177  and  _178
REMARK   79  A    between atoms: _181  and  _183
REMARK   80  A    between atoms: _183  and  _184
REMARK   81  A    between atoms: _183  and  _186
REMARK   82  A    between atoms: _186  and  _187
REMARK   83  A    between atoms: _191  and  _192
REMARK   84  A    between atoms: _197  and  _199
REMARK   85  A    between atoms: _199  and  _200
REMARK   86  A    between atoms: _199  and  _202
REMARK   87  A    between atoms: _202  and  _203
REMARK   88  A    between atoms: _206  and  _208
REMARK   89  A    between atoms: _208  and  _209
REMARK   90  A    between atoms: _208  and  _211
REMARK   91  A    between atoms: _211  and  _212
REMARK   92  A    between atoms: _215  and  _217
REMARK   93  A    between atoms: _217  and  _218
REMARK   94  A    between atoms: _220  and  _222
REMARK   95  A    between atoms: _222  and  _223
REMARK   96  A    between atoms: _222  and  _225
REMARK   97  A    between atoms: _225  and  _226
REMARK   98  A    between atoms: _226  and  _227
REMARK   99  A    between atoms: _227  and  _228
REMARK  100  A    between atoms: _237  and  _239
REMARK  101  A    between atoms: _239  and  _240
REMARK  102  A    between atoms: _239  and  _242
REMARK  103  A    between atoms: _242  and  _243
REMARK  104  A    between atoms: _248  and  _250
REMARK  105  A    between atoms: _250  and  _251
REMARK  106  A    between atoms: _250  and  _253
REMARK  107  A    between atoms: _253  and  _254
REMARK  108  A    between atoms: _254  and  _255
REMARK  109  A    between atoms: _255  and  _256
REMARK  110  A    between atoms: _266  and  _267
REMARK  111  A    between atoms: _272  and  _274
REMARK  112  A    between atoms: _274  and  _275
REMARK  113  A    between atoms: _274  and  _277
REMARK  114  A    between atoms: _277  and  _278
REMARK  115  A    between atoms: _281  and  _283
REMARK  116  A    between atoms: _283  and  _284
REMARK  117  A    between atoms: _283  and  _286
REMARK  118  A    between atoms: _286  and  _287
REMARK  119  A    between atoms: _290  and  _292
REMARK  120  A    between atoms: _292  and  _293
REMARK  121  A    between atoms: _292  and  _295
REMARK  122  A    between atoms: _295  and  _296
REMARK  123  A    between atoms: _299  and  _301
REMARK  124  A    between atoms: _301  and  _302
REMARK  125  A    between atoms: _301  and  _304
REMARK  126  A    between atoms: _304  and  _305
REMARK  127  A    between atoms: _308  and  _310
REMARK  128  A    between atoms: _310  and  _311
REMARK  129  A    between atoms: _310  and  _313
REMARK  130  A    between atoms: _313  and  _314
REMARK  131  A    between atoms: _317  and  _319
REMARK  132  A    between atoms: _319  and  _320
REMARK  133  A    between atoms: _322  and  _324
REMARK  134  A    between atoms: _324  and  _325
REMARK  135  A    between atoms: _328  and  _330
REMARK  136  A    between atoms: _330  and  _331
REMARK  137  A    between atoms: _330  and  _333
REMARK  138  A    between atoms: _333  and  _334
REMARK  139  A    between atoms: _337  and  _339
REMARK  140  A    between atoms: _339  and  _340
REMARK  141  A    between atoms: _339  and  _342
REMARK  142  A    between atoms: _342  and  _343
REMARK  143  A    between atoms: _346  and  _348
REMARK  144  A    between atoms: _348  and  _349
REMARK  145  A    between atoms: _348  and  _351
REMARK  146  A    between atoms: _354  and  _356
REMARK  147  A    between atoms: _356  and  _357
REMARK  148  A    between atoms: _356  and  _359
REMARK  149  A    between atoms: _359  and  _360
REMARK  150  A    between atoms: _363  and  _365
REMARK  151  A    between atoms: _365  and  _366
REMARK  152  A    between atoms: _368  and  _370
REMARK  153  A    between atoms: _370  and  _371
REMARK  154  A    between atoms: _373  and  _375
REMARK  155  A    between atoms: _375  and  _376
REMARK  156  A    between atoms: _375  and  _378
REMARK  157  A    between atoms: _378  and  _379
REMARK  158  A    between atoms: _382  and  _384
REMARK  159  A    between atoms: _384  and  _385
REMARK  160  A    between atoms: _387  and  _389
REMARK  161  A    between atoms: _389  and  _390
REMARK  162  A    between atoms: _392  and  _394
REMARK  163  A    between atoms: _394  and  _395
REMARK  164  A    between atoms: _394  and  _397
REMARK  165  A    between atoms: _397  and  _398
REMARK  166  A    between atoms: _402  and  _403
REMARK  167  A    between atoms: _408  and  _410
REMARK  168  A    between atoms: _410  and  _411
REMARK  169  A    between atoms: _410  and  _413
REMARK  170  A    between atoms: _413  and  _414
REMARK  171  A    between atoms: _418  and  _419
REMARK  172  A    between atoms: _424  and  _426
REMARK  173  A    between atoms: _426  and  _427
REMARK  174  A    between atoms: _426  and  _429
REMARK  175  A    between atoms: _432  and  _434
REMARK  176  A    between atoms: _434  and  _435
REMARK  177  A    between atoms: _434  and  _437
REMARK  178  A    between atoms: _437  and  _438
REMARK  179  A    between atoms: _443  and  _445
REMARK  180  A    between atoms: _445  and  _446
REMARK  181  A    between atoms: _445  and  _448
REMARK  182  A    between atoms: _448  and  _449
REMARK  183  A    between atoms: _452  and  _454
REMARK  184  A    between atoms: _454  and  _455
REMARK  185  A    between atoms: _454  and  _457
REMARK  186  A    between atoms: _457  and  _458
REMARK  187  A    between atoms: _461  and  _463
REMARK  188  A    between atoms: _463  and  _464
REMARK                            x       y       z     vdW  Elec       q    Type
REMARK                         _______ _______ _______ _____ _____    ______ ____
ROOT
ATOM      1  CA  ILE A   1      10.403  10.982   4.907  0.00  0.00    +0.133 C 
ENDROOT
BRANCH   1   2
ATOM      2  N   ILE A   1      11.089  11.568   6.043  0.00  0.00    -0.239 NA
ATOM      3  H   ILE A   1      12.027  11.996   5.905  0.00  0.00    +0.142 HD
ENDBRANCH   1   2
BRANCH   1   4
ATOM      4  C   ILE A   1      11.425  10.159   4.133  0.00  0.00    +0.224 C 
ATOM      5  O   ILE A   1      12.633  10.367   4.269  0.00  0.00    -0.287 OA
ENDBRANCH   1   4
BRANCH   1   6
ATOM      6  CB  ILE A   1       9.739  12.031   3.963  0.00  0.00    +0.023 C 
ATOM      7  CG2 ILE A   1       8.800  12.948   4.742  0.00  0.00    +0.002 C 
BRANCH   6   8
ATOM      8  CG1 ILE A   1      10.789  12.845   3.213  0.00  0.00    +0.002 C 
ATOM      9  CD1 ILE A   1      10.209  13.641   2.072  0.00  0.00    +0.000 C 
ENDBRANCH   6   8
ENDBRANCH   1   6
TORSDOF 4
REMARK  Name = ../refined-set-2016/1a30/1a30_pocket.pdb
REMARK  188 active torsions:
REMARK  status: ('A' for Active; 'I' for Inactive)
REMARK    1  A    between atoms: _1  and  _3
REMARK    2  A    between atoms: _3  and  _4
REMARK    3  A    between atoms: _3  and  _6
REMARK    4  A    between atoms: _6  and  _7
REMARK    5  A    between atoms: _10  and  _12
REMARK    6  A    between atoms: _12  and  _13
REMARK    7  A    between atoms: _12  and  _15
REMARK    8  A    between atoms: _15  and  _16
REMARK    9  A    between atoms: _19  and  _21
REMARK   10  A    between atoms: _21  and  _22
REMARK   11  A    between atoms: _21  and  _24
REMARK   12  A    between atoms: _24  and  _25
REMARK   13  A    between atoms: _28  and  _30
REMARK   14  A    between atoms: _30  and  _31
REMARK   15  A    between atoms: _30  and  _33
REMARK   16  A    between atoms: _33  and  _34
REMARK   17  A    between atoms: _37  and  _39
REMARK   18  A    between atoms: _39  and  _40
REMARK   19  A    between atoms: _42  and  _44
REMARK   20  A    between atoms: _44  and  _45
REMARK   21  A    between atoms: _48  and  _50
REMARK   22  A    between atoms: _50  and  _51
REMARK   23  A    between atoms: _50  and  _53
REMARK   24  A    between atoms: _53  and  _54
REMARK   25  A    between atoms: _57  and  _59
REMARK   26  A    between atoms: _59  and  _60
REMARK   27  A    between atoms: _59  and  _62
REMARK   28  A    between atoms: _62  and  _63
REMARK   29  A    between atoms: _66  and  _68
REMARK   30  A    between atoms: _68  and  _69
REMARK   31  A    between atoms: _68  and  _71
REMARK   32  A    between atoms: _71  and  _72
REMARK   33  A    between atoms: _75  and  _77
REMARK   34  A    between atoms: _77  and  _78
REMARK   35  A    between atoms: _77  and  _80
REMARK   36  A    between atoms: _83  and  _85
REMARK   37  A    between atoms: _85  and  _86
REMARK   38  A    between atoms: _85  and  _88
REMARK   39  A    between atoms: _88  and  _89
REMARK   40  A    between atoms: _89  and  _90
REMARK   41  A    between atoms: _90  and  _91
REMARK   42  A    between atoms: _91  and  _92
REMARK   43  A    between atoms: _96  and  _98
REMARK   44  A    between atoms: _98  and  _99
REMARK   45  A    between atoms: _98  and  _101
REMARK   46  A    between atoms: _101  and  _102
REMARK   47  A    between atoms: _102  and  _103
REMARK   48  A    between atoms: _105  and  _107
REMARK   49  A    between atoms: _107  and  _108
REMARK   50  A    between atoms: _107  and  _110
REMARK   51  A    between atoms: _110  and  _111
REMARK   52  A    between atoms: _114  and  _116
REMARK   53  A    between atoms: _116  and  _117
REMARK   54  A    between atoms: _119  and  _121
REMARK   55  A    between atoms: _121  and  _122
REMARK   56  A    between atoms: _124  and  _126
REMARK   57  A    between atoms: _126  and  _127
REMARK   58  A    between atoms: _126  and  _129
REMARK   59  A    between atoms: _129  and  _130
REMARK   60  A    between atoms: _133  and  _135
REMARK   61  A    between atoms: _135  and  _136
REMARK   62  A    between atoms: _138  and  _140
REMARK   63  A    between atoms: _140  and  _141
REMARK   64  A    between atoms: _143  and  _145
REMARK   65  A    between atoms: _145  and  _146
REMARK   66  A    between atoms: _145  and  _148
REMARK   67  A    between atoms: _148  and  _149
REMARK   68  A    between atoms: _155  and  _157
REMARK   69  A    between atoms: _157  and  _158
REMARK   70  A    between atoms: _157  and  _160
REMARK   71  A    between atoms: _160  and  _161
REMARK   72  A    between atoms: _164  and  _166
REMARK   73  A    between atoms: _166  and  _167
REMARK   74  A    between atoms: _166  and  _169
REMARK   75  A    between atoms: _172  and  _174
REMARK   76  A    between atoms: _174  and  _175
REMARK   77  A    between atoms: _174  and  _177
REMARK   78  A    between atoms: _177  and  _178
REMARK   79  A    between atoms: _181  and  _183
REMARK   80  A    between atoms: _183  and  _184
REMARK   81  A    between atoms: _183  and  _186
REMARK   82  A    between atoms: _186  and  _187
REMARK   83  A    between atoms: _191  and  _192
REMARK   84  A    between atoms: _197  and  _199
REMARK   85  A    between atoms: _199  and  _200
REMARK   86  A    between atoms: _199  and  _202
REMARK   87  A    between atoms: _202  and  _203
REMARK   88  A    between atoms: _206  and  _208
REMARK   89  A    between atoms: _208  and  _209
REMARK   90  A    between atoms: _208  and  _211
REMARK   91  A    between atoms: _211  and  _212
REMARK   92  A    between atoms: _215  and  _217
REMARK   93  A    between atoms: _217  and  _218
REMARK   94  A    between atoms: _220  and  _222
REMARK   95  A    between atoms: _222  and  _223
REMARK   96  A    between atoms: _222  and  _225
REMARK   97  A    between atoms: _225  and  _226
REMARK   98  A    between atoms: _226  and  _227
REMARK   99  A    between atoms: _227  and  _228
REMARK  100  A    between atoms: _237  and  _239
REMARK  101  A    between atoms: _239  and  _240
REMARK  102  A    between atoms: _239  and  _242
REMARK  103  A    between atoms: _242  and  _243
REMARK  104  A    between atoms: _248  and  _250
REMARK  105  A    between atoms: _250  and  _251
REMARK  106  A    between atoms: _250  and  _253
REMARK  107  A    between atoms: _253  and  _254
REMARK  108  A    between atoms: _254  and  _255
REMARK  109  A    between atoms: _255  and  _256
REMARK  110  A    between atoms: _266  and  _267
REMARK  111  A    between atoms: _272  and  _274
REMARK  112  A    between atoms: _274  and  _275
REMARK  113  A    between atoms: _274  and  _277
REMARK  114  A    between atoms: _277  and  _278
REMARK  115  A    between atoms: _281  and  _283
REMARK  116  A    between atoms: _283  and  _284
REMARK  117  A    between atoms: _283  and  _286
REMARK  118  A    between atoms: _286  and  _287
REMARK  119  A    between atoms: _290  and  _292
REMARK  120  A    between atoms: _292  and  _293
REMARK  121  A    between atoms: _292  and  _295
REMARK  122  A    between atoms: _295  and  _296
REMARK  123  A    between atoms: _299  and  _301
REMARK  124  A    between atoms: _301  and  _302
REMARK  125  A    between atoms: _301  and  _304
REMARK  126  A    between atoms: _304  and  _305
REMARK  127  A    between atoms: _308  and  _310
REMARK  128  A    between atoms: _310  and  _311
REMARK  129  A    between atoms: _310  and  _313
REMARK  130  A    between atoms: _313  and  _314
REMARK  131  A    between atoms: _317  and  _319
REMARK  132  A    between atoms: _319  and  _320
REMARK  133  A    between atoms: _322  and  _324
REMARK  134  A    between atoms: _324  and  _325
REMARK  135  A    between atoms: _328  and  _330
REMARK  136  A    between atoms: _330  and  _331
REMARK  137  A    between atoms: _330  and  _333
REMARK  138  A    between atoms: _333  and  _334
REMARK  139  A    between atoms: _337  and  _339
REMARK  140  A    between atoms: _339  and  _340
REMARK  141  A    between atoms: _339  and  _342
REMARK  142  A    between atoms: _342  and  _343
REMARK  143  A    between atoms: _346  and  _348
REMARK  144  A    between atoms: _348  and  _349
REMARK  145  A    between atoms: _348  and  _351
REMARK  146  A    between atoms: _354  and  _356
REMARK  147  A    between atoms: _356  and  _357
REMARK  148  A    between atoms: _356  and  _359
REMARK  149  A    between atoms: _359  and  _360
REMARK  150  A    between atoms: _363  and  _365
REMARK  151  A    between atoms: _365  and  _366
REMARK  152  A    between atoms: _368  and  _370
REMARK  153  A    between atoms: _370  and  _371
REMARK  154  A    between atoms: _373  and  _375
REMARK  155  A    between atoms: _375  and  _376
REMARK  156  A    between atoms: _375  and  _378
REMARK  157  A    between atoms: _378  and  _379
REMARK  158  A    between atoms: _382  and  _384
REMARK  159  A    between atoms: _384  and  _385
REMARK  160  A    between atoms: _387  and  _389
REMARK  161  A    between atoms: _389  and  _390
REMARK  162  A    between atoms: _392  and  _394
REMARK  163  A    between atoms: _394  and  _395
REMARK  164  A    between atoms: _394  and  _397
REMARK  165  A    between atoms: _397  and  _398
REMARK  166  A    between atoms: _402  and  _403
REMARK  167  A    between atoms: _408  and  _410
REMARK  168  A    between atoms: _410  and  _411
REMARK  169  A    between atoms: _410  and  _413
REMARK  170  A    between atoms: _413  and  _414
REMARK  171  A    between atoms: _418  and  _419
REMARK  172  A    between atoms: _424  and  _426
REMARK  173  A    between atoms: _426  and  _427
REMARK  174  A    between atoms: _426  and  _429
REMARK  175  A    between atoms: _432  and  _434
REMARK  176  A    between atoms: _434  and  _435
REMARK  177  A    between atoms: _434  and  _437
REMARK  178  A    between atoms: _437  and  _438
REMARK  179  A    between atoms: _443  and  _445
REMARK  180  A    between atoms: _445  and  _446
REMARK  181  A    between atoms: _445  and  _448
REMARK  182  A    between atoms: _448  and  _449
REMARK  183  A    between atoms: _452  and  _454
REMARK  184  A    between atoms: _454  and  _455
REMARK  185  A    between atoms: _454  and  _457
REMARK  186  A    between atoms: _457  and  _458
REMARK  187  A    between atoms: _461  and  _463
REMARK  188  A    between atoms: _463  and  _464
REMARK                            x       y       z     vdW  Elec       q    Type
REMARK                         _______ _______ _______ _____ _____    ______ ____
ROOT
ATOM      1  C   VAL A   4       8.646  21.439  -3.233  0.00  0.00    +0.241 C 
ATOM      2  O   VAL A   4       9.411  20.860  -2.462  0.00  0.00    -0.273 OA
ATOM      3  N   ASN A   5       8.955  21.693  -4.498  0.00  0.00    -0.297 N 
ATOM      4  H   ASN A   5       8.257  22.163  -5.110  0.00  0.00    +0.150 HD
ENDROOT
BRANCH   3   5
ATOM      5  CA  ASN A   5      10.262  21.323  -5.049  0.00  0.00    +0.158 C 
BRANCH   5   6
ATOM      6  C   ASN A   5      11.296  22.254  -4.405  0.00  0.00    +0.241 C 
ATOM      7  N   ILE A   6      12.399  21.702  -3.898  0.00  0.00    -0.297 N 
ATOM      8  H   ILE A   6      12.526  20.671  -3.953  0.00  0.00    +0.150 HD
ATOM      9  O   ASN A   5      11.064  23.464  -4.332  0.00  0.00    -0.273 OA
BRANCH   7  10
ATOM     10  CA  ILE A   6      13.435  22.520  -3.265  0.00  0.00    +0.149 C 
BRANCH  10  11
ATOM     11  C   ILE A   6      14.841  22.280  -3.835  0.00  0.00    +0.241 C 
ATOM     12  O   ILE A   6      15.246  21.141  -4.066  0.00  0.00    -0.273 OA
ATOM     13  N   ILE A   7      15.560  23.366  -4.100  0.00  0.00    -0.297 N 
ATOM     14  H   ILE A   7      15.136  24.301  -3.933  0.00  0.00    +0.150 HD
BRANCH  13  15
ATOM     15  CA  ILE A   7      16.922  23.293  -4.616  0.00  0.00    +0.149 C 
BRANCH  15  16
ATOM     16  C   ILE A   7      17.812  23.470  -3.392  0.00  0.00    +0.241 C 
ATOM     17  O   ILE A   7      17.822  24.543  -2.775  0.00  0.00    -0.273 OA
ATOM     18  N   GLY A   8      18.473  22.388  -2.992  0.00  0.00    -0.296 N 
ATOM     19  H   GLY A   8      18.369  21.501  -3.525  0.00  0.00    +0.150 HD
BRANCH  18  20
ATOM     20  CA  GLY A   8      19.336  22.420  -1.826  0.00  0.00    +0.163 C 
BRANCH  20  21
ATOM     21  C   GLY A   8      20.751  22.874  -2.118  0.00  0.00    +0.229 C 
ATOM     22  O   GLY A   8      21.123  23.081  -3.276  0.00  0.00    -0.286 OA
ENDBRANCH  20  21
ENDBRANCH  18  20
ENDBRANCH  15  16
BRANCH  15  23
ATOM     23  CB  ILE A   7      17.196  24.414  -5.647  0.00  0.00    +0.027 C 
ATOM     24  CG2 ILE A   7      18.639  24.365  -6.130  0.00  0.00    +0.002 C 
BRANCH  23  25
ATOM     25  CG1 ILE A   7      16.223  24.287  -6.827  0.00  0.00    +0.002 C 
ATOM     26  CD1 ILE A   7      16.282  22.931  -7.555  0.00  0.00    +0.000 C 
ENDBRANCH  23  25
ENDBRANCH  15  23
ENDBRANCH  13  15
ENDBRANCH  10  11
BRANCH  10  27
ATOM     27  CB  ILE A   6      13.481  22.344  -1.700  0.00  0.00    +0.027 C 
ATOM     28  CG2 ILE A   6      12.126  22.655  -1.071  0.00  0.00    +0.002 C 
BRANCH  27  29
ATOM     29  CG1 ILE A   6      13.930  20.938  -1.308  0.00  0.00    +0.002 C 
ATOM     30  CD1 ILE A   6      14.057  20.741   0.197  0.00  0.00    +0.000 C 
ENDBRANCH  27  29
ENDBRANCH  10  27
ENDBRANCH   7  10
ENDBRANCH   5   6
BRANCH   5  31
ATOM     31  CB  ASN A   5      10.280  21.517  -6.568  0.00  0.00    +0.114 C 
BRANCH  31  32
ATOM     32  CG  ASN A   5       9.308  20.605  -7.292  0.00  0.00    +0.222 C 
ATOM     33  OD1 ASN A   5       9.098  19.461  -6.892  0.00  0.00    -0.275 OA
ATOM     34  ND2 ASN A   5       8.714  21.106  -8.369  0.00  0.00    -0.329 N 
ATOM     35 HD21 ASN A   5       8.921  22.079  -8.672  0.00  0.00    +0.145 HD
ATOM     36 HD22 ASN A   5       8.042  20.525  -8.910  0.00  0.00    +0.145 HD
ENDBRANCH  31  32
ENDBRANCH   5  31
ENDBRANCH   3   5
BRANCH   1  37
ATOM     37  CA  VAL A   4       7.266  21.885  -2.752  0.00  0.00    +0.149 C 
BRANCH  37  39
ATOM     38  C   PRO A   3       5.640  20.754  -1.310  0.00  0.00    +0.241 C 
ATOM     39  N   VAL A   4       6.898  21.091  -1.578  0.00  0.00    -0.297 N 
ATOM     40  H   VAL A   4       7.649  20.779  -0.929  0.00  0.00    +0.150 HD
ATOM     41  O   PRO A   3       4.687  21.106  -2.008  0.00  0.00    -0.273 OA
BRANCH  38  47
ATOM     42  C   THR A   2       6.778  17.971  -0.790  0.00  0.00    +0.246 C 
ATOM     43  N   PRO A   3       6.465  18.902   0.136  0.00  0.00    -0.272 N 
ATOM     44  CD  PRO A   3       7.020  18.977   1.501  0.00  0.00    +0.094 C 
ATOM     45  CG  PRO A   3       5.992  19.808   2.230  0.00  0.00    +0.024 C 
ATOM     46  CB  PRO A   3       5.564  20.782   1.202  0.00  0.00    +0.031 C 
ATOM     47  CA  PRO A   3       5.421  19.921  -0.050  0.00  0.00    +0.152 C 
ATOM     48  O   THR A   2       6.197  17.903  -1.881  0.00  0.00    -0.273 OA
BRANCH  42  49
ATOM     49  CA  THR A   2       7.893  16.979  -0.446  0.00  0.00    +0.176 C 
BRANCH  49  52
ATOM     50  C   PRO A   1       7.034  14.710  -0.177  0.00  0.00    +0.239 C 
ATOM     51  O   PRO A   1       6.808  14.884   1.021  0.00  0.00    -0.274 OA
ATOM     52  N   THR A   2       7.563  15.650  -0.953  0.00  0.00    -0.295 N 
ATOM     53  H   THR A   2       7.748  15.432  -1.953  0.00  0.00    +0.150 HD
BRANCH  50  58
ATOM     54  N   PRO A   1       7.837  12.555  -1.287  0.00  0.00    -0.210 NA
ATOM     55  CD  PRO A   1       8.019  11.389  -0.398  0.00  0.00    +0.089 C 
ATOM     56  CG  PRO A   1       7.105  11.706   0.764  0.00  0.00    +0.021 C 
ATOM     57  CB  PRO A   1       5.972  12.429   0.106  0.00  0.00    +0.028 C 
ATOM     58  CA  PRO A   1       6.701  13.371  -0.847  0.00  0.00    +0.149 C 
ENDBRANCH  50  58
ENDBRANCH  49  52
BRANCH  49  59
ATOM     59  CB  THR A   2       9.225  17.517  -1.046  0.00  0.00    +0.137 C 
ATOM     60  CG2 THR A   2       9.171  17.576  -2.567  0.00  0.00    +0.034 C 
BRANCH  59  61
ATOM     61  OG1 THR A   2       9.466  18.837  -0.546  0.00  0.00    -0.382 OA
ATOM     62  HG1 THR A   2       8.718  19.430  -0.809  0.00  0.00    +0.210 HD
ENDBRANCH  59  61
ENDBRANCH  49  59
ENDBRANCH  42  49
ENDBRANCH  38  47
ENDBRANCH  37  39
BRANCH  37  63
ATOM     63  CB  VAL A   4       7.334  23.419  -2.440  0.00  0.00    +0.027 C 
ATOM     64  CG2 VAL A   4       8.492  23.719  -1.523  0.00  0.00    +0.002 C 
ATOM     65  CG1 VAL A   4       6.026  23.917  -1.828  0.00  0.00    +0.002 C 
ENDBRANCH  37  63
ENDBRANCH   1  37
TORSDOF 23
REMARK  Name = ../refined-set-2016/1a30/1a30_pocket.pdb
REMARK  188 active torsions:
REMARK  status: ('A' for Active; 'I' for Inactive)
REMARK    1  A    between atoms: _1  and  _3
REMARK    2  A    between atoms: _3  and  _4
REMARK    3  A    between atoms: _3  and  _6
REMARK    4  A    between atoms: _6  and  _7
REMARK    5  A    between atoms: _10  and  _12
REMARK    6  A    between atoms: _12  and  _13
REMARK    7  A    between atoms: _12  and  _15
REMARK    8  A    between atoms: _15  and  _16
REMARK    9  A    between atoms: _19  and  _21
REMARK   10  A    between atoms: _21  and  _22
REMARK   11  A    between atoms: _21  and  _24
REMARK   12  A    between atoms: _24  and  _25
REMARK   13  A    between atoms: _28  and  _30
REMARK   14  A    between atoms: _30  and  _31
REMARK   15  A    between atoms: _30  and  _33
REMARK   16  A    between atoms: _33  and  _34
REMARK   17  A    between atoms: _37  and  _39
REMARK   18  A    between atoms: _39  and  _40
REMARK   19  A    between atoms: _42  and  _44
REMARK   20  A    between atoms: _44  and  _45
REMARK   21  A    between atoms: _48  and  _50
REMARK   22  A    between atoms: _50  and  _51
REMARK   23  A    between atoms: _50  and  _53
REMARK   24  A    between atoms: _53  and  _54
REMARK   25  A    between atoms: _57  and  _59
REMARK   26  A    between atoms: _59  and  _60
REMARK   27  A    between atoms: _59  and  _62
REMARK   28  A    between atoms: _62  and  _63
REMARK   29  A    between atoms: _66  and  _68
REMARK   30  A    between atoms: _68  and  _69
REMARK   31  A    between atoms: _68  and  _71
REMARK   32  A    between atoms: _71  and  _72
REMARK   33  A    between atoms: _75  and  _77
REMARK   34  A    between atoms: _77  and  _78
REMARK   35  A    between atoms: _77  and  _80
REMARK   36  A    between atoms: _83  and  _85
REMARK   37  A    between atoms: _85  and  _86
REMARK   38  A    between atoms: _85  and  _88
REMARK   39  A    between atoms: _88  and  _89
REMARK   40  A    between atoms: _89  and  _90
REMARK   41  A    between atoms: _90  and  _91
REMARK   42  A    between atoms: _91  and  _92
REMARK   43  A    between atoms: _96  and  _98
REMARK   44  A    between atoms: _98  and  _99
REMARK   45  A    between atoms: _98  and  _101
REMARK   46  A    between atoms: _101  and  _102
REMARK   47  A    between atoms: _102  and  _103
REMARK   48  A    between atoms: _105  and  _107
REMARK   49  A    between atoms: _107  and  _108
REMARK   50  A    between atoms: _107  and  _110
REMARK   51  A    between atoms: _110  and  _111
REMARK   52  A    between atoms: _114  and  _116
REMARK   53  A    between atoms: _116  and  _117
REMARK   54  A    between atoms: _119  and  _121
REMARK   55  A    between atoms: _121  and  _122
REMARK   56  A    between atoms: _124  and  _126
REMARK   57  A    between atoms: _126  and  _127
REMARK   58  A    between atoms: _126  and  _129
REMARK   59  A    between atoms: _129  and  _130
REMARK   60  A    between atoms: _133  and  _135
REMARK   61  A    between atoms: _135  and  _136
REMARK   62  A    between atoms: _138  and  _140
REMARK   63  A    between atoms: _140  and  _141
REMARK   64  A    between atoms: _143  and  _145
REMARK   65  A    between atoms: _145  and  _146
REMARK   66  A    between atoms: _145  and  _148
REMARK   67  A    between atoms: _148  and  _149
REMARK   68  A    between atoms: _155  and  _157
REMARK   69  A    between atoms: _157  and  _158
REMARK   70  A    between atoms: _157  and  _160
REMARK   71  A    between atoms: _160  and  _161
REMARK   72  A    between atoms: _164  and  _166
REMARK   73  A    between atoms: _166  and  _167
REMARK   74  A    between atoms: _166  and  _169
REMARK   75  A    between atoms: _172  and  _174
REMARK   76  A    between atoms: _174  and  _175
REMARK   77  A    between atoms: _174  and  _177
REMARK   78  A    between atoms: _177  and  _178
REMARK   79  A    between atoms: _181  and  _183
REMARK   80  A    between atoms: _183  and  _184
REMARK   81  A    between atoms: _183  and  _186
REMARK   82  A    between atoms: _186  and  _187
REMARK   83  A    between atoms: _191  and  _192
REMARK   84  A    between atoms: _197  and  _199
REMARK   85  A    between atoms: _199  and  _200
REMARK   86  A    between atoms: _199  and  _202
REMARK   87  A    between atoms: _202  and  _203
REMARK   88  A    between atoms: _206  and  _208
REMARK   89  A    between atoms: _208  and  _209
REMARK   90  A    between atoms: _208  and  _211
REMARK   91  A    between atoms: _211  and  _212
REMARK   92  A    between atoms: _215  and  _217
REMARK   93  A    between atoms: _217  and  _218
REMARK   94  A    between atoms: _220  and  _222
REMARK   95  A    between atoms: _222  and  _223
REMARK   96  A    between atoms: _222  and  _225
REMARK   97  A    between atoms: _225  and  _226
REMARK   98  A    between atoms: _226  and  _227
REMARK   99  A    between atoms: _227  and  _228
REMARK  100  A    between atoms: _237  and  _239
REMARK  101  A    between atoms: _239  and  _240
REMARK  102  A    between atoms: _239  and  _242
REMARK  103  A    between atoms: _242  and  _243
REMARK  104  A    between atoms: _248  and  _250
REMARK  105  A    between atoms: _250  and  _251
REMARK  106  A    between atoms: _250  and  _253
REMARK  107  A    between atoms: _253  and  _254
REMARK  108  A    between atoms: _254  and  _255
REMARK  109  A    between atoms: _255  and  _256
REMARK  110  A    between atoms: _266  and  _267
REMARK  111  A    between atoms: _272  and  _274
REMARK  112  A    between atoms: _274  and  _275
REMARK  113  A    between atoms: _274  and  _277
REMARK  114  A    between atoms: _277  and  _278
REMARK  115  A    between atoms: _281  and  _283
REMARK  116  A    between atoms: _283  and  _284
REMARK  117  A    between atoms: _283  and  _286
REMARK  118  A    between atoms: _286  and  _287
REMARK  119  A    between atoms: _290  and  _292
REMARK  120  A    between atoms: _292  and  _293
REMARK  121  A    between atoms: _292  and  _295
REMARK  122  A    between atoms: _295  and  _296
REMARK  123  A    between atoms: _299  and  _301
REMARK  124  A    between atoms: _301  and  _302
REMARK  125  A    between atoms: _301  and  _304
REMARK  126  A    between atoms: _304  and  _305
REMARK  127  A    between atoms: _308  and  _310
REMARK  128  A    between atoms: _310  and  _311
REMARK  129  A    between atoms: _310  and  _313
REMARK  130  A    between atoms: _313  and  _314
REMARK  131  A    between atoms: _317  and  _319
REMARK  132  A    between atoms: _319  and  _320
REMARK  133  A    between atoms: _322  and  _324
REMARK  134  A    between atoms: _324  and  _325
REMARK  135  A    between atoms: _328  and  _330
REMARK  136  A    between atoms: _330  and  _331
REMARK  137  A    between atoms: _330  and  _333
REMARK  138  A    between atoms: _333  and  _334
REMARK  139  A    between atoms: _337  and  _339
REMARK  140  A    between atoms: _339  and  _340
REMARK  141  A    between atoms: _339  and  _342
REMARK  142  A    between atoms: _342  and  _343
REMARK  143  A    between atoms: _346  and  _348
REMARK  144  A    between atoms: _348  and  _349
REMARK  145  A    between atoms: _348  and  _351
REMARK  146  A    between atoms: _354  and  _356
REMARK  147  A    between atoms: _356  and  _357
REMARK  148  A    between atoms: _356  and  _359
REMARK  149  A    between atoms: _359  and  _360
REMARK  150  A    between atoms: _363  and  _365
REMARK  151  A    between atoms: _365  and  _366
REMARK  152  A    between atoms: _368  and  _370
REMARK  153  A    between atoms: _370  and  _371
REMARK  154  A    between atoms: _373  and  _375
REMARK  155  A    between atoms: _375  and  _376
REMARK  156  A    between atoms: _375  and  _378
REMARK  157  A    between atoms: _378  and  _379
REMARK  158  A    between atoms: _382  and  _384
REMARK  159  A    between atoms: _384  and  _385
REMARK  160  A    between atoms: _387  and  _389
REMARK  161  A    between atoms: _389  and  _390
REMARK  162  A    between atoms: _392  and  _394
REMARK  163  A    between atoms: _394  and  _395
REMARK  164  A    between atoms: _394  and  _397
REMARK  165  A    between atoms: _397  and  _398
REMARK  166  A    between atoms: _402  and  _403
REMARK  167  A    between atoms: _408  and  _410
REMARK  168  A    between atoms: _410  and  _411
REMARK  169  A    between atoms: _410  and  _413
REMARK  170  A    between atoms: _413  and  _414
REMARK  171  A    between atoms: _418  and  _419
REMARK  172  A    between atoms: _424  and  _426
REMARK  173  A    between atoms: _426  and  _427
REMARK  174  A    between atoms: _426  and  _429
REMARK  175  A    between atoms: _432  and  _434
REMARK  176  A    between atoms: _434  and  _435
REMARK  177  A    between atoms: _434  and  _437
REMARK  178  A    between atoms: _437  and  _438
REMARK  179  A    between atoms: _443  and  _445
REMARK  180  A    between atoms: _445  and  _446
REMARK  181  A    between atoms: _445  and  _448
REMARK  182  A    between atoms: _448  and  _449
REMARK  183  A    between atoms: _452  and  _454
REMARK  184  A    between atoms: _454  and  _455
REMARK  185  A    between atoms: _454  and  _457
REMARK  186  A    between atoms: _457  and  _458
REMARK  187  A    between atoms: _461  and  _463
REMARK  188  A    between atoms: _463  and  _464
REMARK                            x       y       z     vdW  Elec       q    Type
REMARK                         _______ _______ _______ _____ _____    ______ ____
ROOT
ATOM      1  O   HOH     1       4.198  28.951   7.758  0.00  0.00    +0.000 OA
ENDROOT
TORSDOF 0
REMARK  Name = ../refined-set-2016/1a30/1a30_pocket.pdb
REMARK  188 active torsions:
REMARK  status: ('A' for Active; 'I' for Inactive)
REMARK    1  A    between atoms: _1  and  _3
REMARK    2  A    between atoms: _3  and  _4
REMARK    3  A    between atoms: _3  and  _6
REMARK    4  A    between atoms: _6  and  _7
REMARK    5  A    between atoms: _10  and  _12
REMARK    6  A    between atoms: _12  and  _13
REMARK    7  A    between atoms: _12  and  _15
REMARK    8  A    between atoms: _15  and  _16
REMARK    9  A    between atoms: _19  and  _21
REMARK   10  A    between atoms: _21  and  _22
REMARK   11  A    between atoms: _21  and  _24
REMARK   12  A    between atoms: _24  and  _25
REMARK   13  A    between atoms: _28  and  _30
REMARK   14  A    between atoms: _30  and  _31
REMARK   15  A    between atoms: _30  and  _33
REMARK   16  A    between atoms: _33  and  _34
REMARK   17  A    between atoms: _37  and  _39
REMARK   18  A    between atoms: _39  and  _40
REMARK   19  A    between atoms: _42  and  _44
REMARK   20  A    between atoms: _44  and  _45
REMARK   21  A    between atoms: _48  and  _50
REMARK   22  A    between atoms: _50  and  _51
REMARK   23  A    between atoms: _50  and  _53
REMARK   24  A    between atoms: _53  and  _54
REMARK   25  A    between atoms: _57  and  _59
REMARK   26  A    between atoms: _59  and  _60
REMARK   27  A    between atoms: _59  and  _62
REMARK   28  A    between atoms: _62  and  _63
REMARK   29  A    between atoms: _66  and  _68
REMARK   30  A    between atoms: _68  and  _69
REMARK   31  A    between atoms: _68  and  _71
REMARK   32  A    between atoms: _71  and  _72
REMARK   33  A    between atoms: _75  and  _77
REMARK   34  A    between atoms: _77  and  _78
REMARK   35  A    between atoms: _77  and  _80
REMARK   36  A    between atoms: _83  and  _85
REMARK   37  A    between atoms: _85  and  _86
REMARK   38  A    between atoms: _85  and  _88
REMARK   39  A    between atoms: _88  and  _89
REMARK   40  A    between atoms: _89  and  _90
REMARK   41  A    between atoms: _90  and  _91
REMARK   42  A    between atoms: _91  and  _92
REMARK   43  A    between atoms: _96  and  _98
REMARK   44  A    between atoms: _98  and  _99
REMARK   45  A    between atoms: _98  and  _101
REMARK   46  A    between atoms: _101  and  _102
REMARK   47  A    between atoms: _102  and  _103
REMARK   48  A    between atoms: _105  and  _107
REMARK   49  A    between atoms: _107  and  _108
REMARK   50  A    between atoms: _107  and  _110
REMARK   51  A    between atoms: _110  and  _111
REMARK   52  A    between atoms: _114  and  _116
REMARK   53  A    between atoms: _116  and  _117
REMARK   54  A    between atoms: _119  and  _121
REMARK   55  A    between atoms: _121  and  _122
REMARK   56  A    between atoms: _124  and  _126
REMARK   57  A    between atoms: _126  and  _127
REMARK   58  A    between atoms: _126  and  _129
REMARK   59  A    between atoms: _129  and  _130
REMARK   60  A    between atoms: _133  and  _135
REMARK   61  A    between atoms: _135  and  _136
REMARK   62  A    between atoms: _138  and  _140
REMARK   63  A    between atoms: _140  and  _141
REMARK   64  A    between atoms: _143  and  _145
REMARK   65  A    between atoms: _145  and  _146
REMARK   66  A    between atoms: _145  and  _148
REMARK   67  A    between atoms: _148  and  _149
REMARK   68  A    between atoms: _155  and  _157
REMARK   69  A    between atoms: _157  and  _158
REMARK   70  A    between atoms: _157  and  _160
REMARK   71  A    between atoms: _160  and  _161
REMARK   72  A    between atoms: _164  and  _166
REMARK   73  A    between atoms: _166  and  _167
REMARK   74  A    between atoms: _166  and  _169
REMARK   75  A    between atoms: _172  and  _174
REMARK   76  A    between atoms: _174  and  _175
REMARK   77  A    between atoms: _174  and  _177
REMARK   78  A    between atoms: _177  and  _178
REMARK   79  A    between atoms: _181  and  _183
REMARK   80  A    between atoms: _183  and  _184
REMARK   81  A    between atoms: _183  and  _186
REMARK   82  A    between atoms: _186  and  _187
REMARK   83  A    between atoms: _191  and  _192
REMARK   84  A    between atoms: _197  and  _199
REMARK   85  A    between atoms: _199  and  _200
REMARK   86  A    between atoms: _199  and  _202
REMARK   87  A    between atoms: _202  and  _203
REMARK   88  A    between atoms: _206  and  _208
REMARK   89  A    between atoms: _208  and  _209
REMARK   90  A    between atoms: _208  and  _211
REMARK   91  A    between atoms: _211  and  _212
REMARK   92  A    between atoms: _215  and  _217
REMARK   93  A    between atoms: _217  and  _218
REMARK   94  A    between atoms: _220  and  _222
REMARK   95  A    between atoms: _222  and  _223
REMARK   96  A    between atoms: _222  and  _225
REMARK   97  A    between atoms: _225  and  _226
REMARK   98  A    between atoms: _226  and  _227
REMARK   99  A    between atoms: _227  and  _228
REMARK  100  A    between atoms: _237  and  _239
REMARK  101  A    between atoms: _239  and  _240
REMARK  102  A    between atoms: _239  and  _242
REMARK  103  A    between atoms: _242  and  _243
REMARK  104  A    between atoms: _248  and  _250
REMARK  105  A    between atoms: _250  and  _251
REMARK  106  A    between atoms: _250  and  _253
REMARK  107  A    between atoms: _253  and  _254
REMARK  108  A    between atoms: _254  and  _255
REMARK  109  A    between atoms: _255  and  _256
REMARK  110  A    between atoms: _266  and  _267
REMARK  111  A    between atoms: _272  and  _274
REMARK  112  A    between atoms: _274  and  _275
REMARK  113  A    between atoms: _274  and  _277
REMARK  114  A    between atoms: _277  and  _278
REMARK  115  A    between atoms: _281  and  _283
REMARK  116  A    between atoms: _283  and  _284
REMARK  117  A    between atoms: _283  and  _286
REMARK  118  A    between atoms: _286  and  _287
REMARK  119  A    between atoms: _290  and  _292
REMARK  120  A    between atoms: _292  and  _293
REMARK  121  A    between atoms: _292  and  _295
REMARK  122  A    between atoms: _295  and  _296
REMARK  123  A    between atoms: _299  and  _301
REMARK  124  A    between atoms: _301  and  _302
REMARK  125  A    between atoms: _301  and  _304
REMARK  126  A    between atoms: _304  and  _305
REMARK  127  A    between atoms: _308  and  _310
REMARK  128  A    between atoms: _310  and  _311
REMARK  129  A    between atoms: _310  and  _313
REMARK  130  A    between atoms: _313  and  _314
REMARK  131  A    between atoms: _317  and  _319
REMARK  132  A    between atoms: _319  and  _320
REMARK  133  A    between atoms: _322  and  _324
REMARK  134  A    between atoms: _324  and  _325
REMARK  135  A    between atoms: _328  and  _330
REMARK  136  A    between atoms: _330  and  _331
REMARK  137  A    between atoms: _330  and  _333
REMARK  138  A    between atoms: _333  and  _334
REMARK  139  A    between atoms: _337  and  _339
REMARK  140  A    between atoms: _339  and  _340
REMARK  141  A    between atoms: _339  and  _342
REMARK  142  A    between atoms: _342  and  _343
REMARK  143  A    between atoms: _346  and  _348
REMARK  144  A    between atoms: _348  and  _349
REMARK  145  A    between atoms: _348  and  _351
REMARK  146  A    between atoms: _354  and  _356
REMARK  147  A    between atoms: _356  and  _357
REMARK  148  A    between atoms: _356  and  _359
REMARK  149  A    between atoms: _359  and  _360
REMARK  150  A    between atoms: _363  and  _365
REMARK  151  A    between atoms: _365  and  _366
REMARK  152  A    between atoms: _368  and  _370
REMARK  153  A    between atoms: _370  and  _371
REMARK  154  A    between atoms: _373  and  _375
REMARK  155  A    between atoms: _375  and  _376
REMARK  156  A    between atoms: _375  and  _378
REMARK  157  A    between atoms: _378  and  _379
REMARK  158  A    between atoms: _382  and  _384
REMARK  159  A    between atoms: _384  and  _385
REMARK  160  A    between atoms: _387  and  _389
REMARK  161  A    between atoms: _389  and  _390
REMARK  162  A    between atoms: _392  and  _394
REMARK  163  A    between atoms: _394  and  _395
REMARK  164  A    between atoms: _394  and  _397
REMARK  165  A    between atoms: _397  and  _398
REMARK  166  A    between atoms: _402  and  _403
REMARK  167  A    between atoms: _408  and  _410
REMARK  168  A    between atoms: _410  and  _411
REMARK  169  A    between atoms: _410  and  _413
REMARK  170  A    between atoms: _413  and  _414
REMARK  171  A    between atoms: _418  and  _419
REMARK  172  A    between atoms: _424  and  _426
REMARK  173  A    between atoms: _426  and  _427
REMARK  174  A    between atoms: _426  and  _429
REMARK  175  A    between atoms: _432  and  _434
REMARK  176  A    between atoms: _434  and  _435
REMARK  177  A    between atoms: _434  and  _437
REMARK  178  A    between atoms: _437  and  _438
REMARK  179  A    between atoms: _443  and  _445
REMARK  180  A    between atoms: _445  and  _446
REMARK  181  A    between atoms: _445  and  _448
REMARK  182  A    between atoms: _448  and  _449
REMARK  183  A    between atoms: _452  and  _454
REMARK  184  A    between atoms: _454  and  _455
REMARK  185  A    between atoms: _454  and  _457
REMARK  186  A    between atoms: _457  and  _458
REMARK  187  A    between atoms: _461  and  _463
REMARK  188  A    between atoms: _463  and  _464
REMARK                            x       y       z     vdW  Elec       q    Type
REMARK                         _______ _______ _______ _____ _____    ______ ____
ROOT
ATOM      1  O   HOH     1       4.538  33.145   3.279  0.00  0.00    +0.000 OA
ENDROOT
TORSDOF 0
REMARK  Name = ../refined-set-2016/1a30/1a30_pocket.pdb
REMARK  188 active torsions:
REMARK  status: ('A' for Active; 'I' for Inactive)
REMARK    1  A    between atoms: _1  and  _3
REMARK    2  A    between atoms: _3  and  _4
REMARK    3  A    between atoms: _3  and  _6
REMARK    4  A    between atoms: _6  and  _7
REMARK    5  A    between atoms: _10  and  _12
REMARK    6  A    between atoms: _12  and  _13
REMARK    7  A    between atoms: _12  and  _15
REMARK    8  A    between atoms: _15  and  _16
REMARK    9  A    between atoms: _19  and  _21
REMARK   10  A    between atoms: _21  and  _22
REMARK   11  A    between atoms: _21  and  _24
REMARK   12  A    between atoms: _24  and  _25
REMARK   13  A    between atoms: _28  and  _30
REMARK   14  A    between atoms: _30  and  _31
REMARK   15  A    between atoms: _30  and  _33
REMARK   16  A    between atoms: _33  and  _34
REMARK   17  A    between atoms: _37  and  _39
REMARK   18  A    between atoms: _39  and  _40
REMARK   19  A    between atoms: _42  and  _44
REMARK   20  A    between atoms: _44  and  _45
REMARK   21  A    between atoms: _48  and  _50
REMARK   22  A    between atoms: _50  and  _51
REMARK   23  A    between atoms: _50  and  _53
REMARK   24  A    between atoms: _53  and  _54
REMARK   25  A    between atoms: _57  and  _59
REMARK   26  A    between atoms: _59  and  _60
REMARK   27  A    between atoms: _59  and  _62
REMARK   28  A    between atoms: _62  and  _63
REMARK   29  A    between atoms: _66  and  _68
REMARK   30  A    between atoms: _68  and  _69
REMARK   31  A    between atoms: _68  and  _71
REMARK   32  A    between atoms: _71  and  _72
REMARK   33  A    between atoms: _75  and  _77
REMARK   34  A    between atoms: _77  and  _78
REMARK   35  A    between atoms: _77  and  _80
REMARK   36  A    between atoms: _83  and  _85
REMARK   37  A    between atoms: _85  and  _86
REMARK   38  A    between atoms: _85  and  _88
REMARK   39  A    between atoms: _88  and  _89
REMARK   40  A    between atoms: _89  and  _90
REMARK   41  A    between atoms: _90  and  _91
REMARK   42  A    between atoms: _91  and  _92
REMARK   43  A    between atoms: _96  and  _98
REMARK   44  A    between atoms: _98  and  _99
REMARK   45  A    between atoms: _98  and  _101
REMARK   46  A    between atoms: _101  and  _102
REMARK   47  A    between atoms: _102  and  _103
REMARK   48  A    between atoms: _105  and  _107
REMARK   49  A    between atoms: _107  and  _108
REMARK   50  A    between atoms: _107  and  _110
REMARK   51  A    between atoms: _110  and  _111
REMARK   52  A    between atoms: _114  and  _116
REMARK   53  A    between atoms: _116  and  _117
REMARK   54  A    between atoms: _119  and  _121
REMARK   55  A    between atoms: _121  and  _122
REMARK   56  A    between atoms: _124  and  _126
REMARK   57  A    between atoms: _126  and  _127
REMARK   58  A    between atoms: _126  and  _129
REMARK   59  A    between atoms: _129  and  _130
REMARK   60  A    between atoms: _133  and  _135
REMARK   61  A    between atoms: _135  and  _136
REMARK   62  A    between atoms: _138  and  _140
REMARK   63  A    between atoms: _140  and  _141
REMARK   64  A    between atoms: _143  and  _145
REMARK   65  A    between atoms: _145  and  _146
REMARK   66  A    between atoms: _145  and  _148
REMARK   67  A    between atoms: _148  and  _149
REMARK   68  A    between atoms: _155  and  _157
REMARK   69  A    between atoms: _157  and  _158
REMARK   70  A    between atoms: _157  and  _160
REMARK   71  A    between atoms: _160  and  _161
REMARK   72  A    between atoms: _164  and  _166
REMARK   73  A    between atoms: _166  and  _167
REMARK   74  A    between atoms: _166  and  _169
REMARK   75  A    between atoms: _172  and  _174
REMARK   76  A    between atoms: _174  and  _175
REMARK   77  A    between atoms: _174  and  _177
REMARK   78  A    between atoms: _177  and  _178
REMARK   79  A    between atoms: _181  and  _183
REMARK   80  A    between atoms: _183  and  _184
REMARK   81  A    between atoms: _183  and  _186
REMARK   82  A    between atoms: _186  and  _187
REMARK   83  A    between atoms: _191  and  _192
REMARK   84  A    between atoms: _197  and  _199
REMARK   85  A    between atoms: _199  and  _200
REMARK   86  A    between atoms: _199  and  _202
REMARK   87  A    between atoms: _202  and  _203
REMARK   88  A    between atoms: _206  and  _208
REMARK   89  A    between atoms: _208  and  _209
REMARK   90  A    between atoms: _208  and  _211
REMARK   91  A    between atoms: _211  and  _212
REMARK   92  A    between atoms: _215  and  _217
REMARK   93  A    between atoms: _217  and  _218
REMARK   94  A    between atoms: _220  and  _222
REMARK   95  A    between atoms: _222  and  _223
REMARK   96  A    between atoms: _222  and  _225
REMARK   97  A    between atoms: _225  and  _226
REMARK   98  A    between atoms: _226  and  _227
REMARK   99  A    between atoms: _227  and  _228
REMARK  100  A    between atoms: _237  and  _239
REMARK  101  A    between atoms: _239  and  _240
REMARK  102  A    between atoms: _239  and  _242
REMARK  103  A    between atoms: _242  and  _243
REMARK  104  A    between atoms: _248  and  _250
REMARK  105  A    between atoms: _250  and  _251
REMARK  106  A    between atoms: _250  and  _253
REMARK  107  A    between atoms: _253  and  _254
REMARK  108  A    between atoms: _254  and  _255
REMARK  109  A    between atoms: _255  and  _256
REMARK  110  A    between atoms: _266  and  _267
REMARK  111  A    between atoms: _272  and  _274
REMARK  112  A    between atoms: _274  and  _275
REMARK  113  A    between atoms: _274  and  _277
REMARK  114  A    between atoms: _277  and  _278
REMARK  115  A    between atoms: _281  and  _283
REMARK  116  A    between atoms: _283  and  _284
REMARK  117  A    between atoms: _283  and  _286
REMARK  118  A    between atoms: _286  and  _287
REMARK  119  A    between atoms: _290  and  _292
REMARK  120  A    between atoms: _292  and  _293
REMARK  121  A    between atoms: _292  and  _295
REMARK  122  A    between atoms: _295  and  _296
REMARK  123  A    between atoms: _299  and  _301
REMARK  124  A    between atoms: _301  and  _302
REMARK  125  A    between atoms: _301  and  _304
REMARK  126  A    between atoms: _304  and  _305
REMARK  127  A    between atoms: _308  and  _310
REMARK  128  A    between atoms: _310  and  _311
REMARK  129  A    between atoms: _310  and  _313
REMARK  130  A    between atoms: _313  and  _314
REMARK  131  A    between atoms: _317  and  _319
REMARK  132  A    between atoms: _319  and  _320
REMARK  133  A    between atoms: _322  and  _324
REMARK  134  A    between atoms: _324  and  _325
REMARK  135  A    between atoms: _328  and  _330
REMARK  136  A    between atoms: _330  and  _331
REMARK  137  A    between atoms: _330  and  _333
REMARK  138  A    between atoms: _333  and  _334
REMARK  139  A    between atoms: _337  and  _339
REMARK  140  A    between atoms: _339  and  _340
REMARK  141  A    between atoms: _339  and  _342
REMARK  142  A    between atoms: _342  and  _343
REMARK  143  A    between atoms: _346  and  _348
REMARK  144  A    between atoms: _348  and  _349
REMARK  145  A    between atoms: _348  and  _351
REMARK  146  A    between atoms: _354  and  _356
REMARK  147  A    between atoms: _356  and  _357
REMARK  148  A    between atoms: _356  and  _359
REMARK  149  A    between atoms: _359  and  _360
REMARK  150  A    between atoms: _363  and  _365
REMARK  151  A    between atoms: _365  and  _366
REMARK  152  A    between atoms: _368  and  _370
REMARK  153  A    between atoms: _370  and  _371
REMARK  154  A    between atoms: _373  and  _375
REMARK  155  A    between atoms: _375  and  _376
REMARK  156  A    between atoms: _375  and  _378
REMARK  157  A    between atoms: _378  and  _379
REMARK  158  A    between atoms: _382  and  _384
REMARK  159  A    between atoms: _384  and  _385
REMARK  160  A    between atoms: _387  and  _389
REMARK  161  A    between atoms: _389  and  _390
REMARK  162  A    between atoms: _392  and  _394
REMARK  163  A    between atoms: _394  and  _395
REMARK  164  A    between atoms: _394  and  _397
REMARK  165  A    between atoms: _397  and  _398
REMARK  166  A    between atoms: _402  and  _403
REMARK  167  A    between atoms: _408  and  _410
REMARK  168  A    between atoms: _410  and  _411
REMARK  169  A    between atoms: _410  and  _413
REMARK  170  A    between atoms: _413  and  _414
REMARK  171  A    between atoms: _418  and  _419
REMARK  172  A    between atoms: _424  and  _426
REMARK  173  A    between atoms: _426  and  _427
REMARK  174  A    between atoms: _426  and  _429
REMARK  175  A    between atoms: _432  and  _434
REMARK  176  A    between atoms: _434  and  _435
REMARK  177  A    between atoms: _434  and  _437
REMARK  178  A    between atoms: _437  and  _438
REMARK  179  A    between atoms: _443  and  _445
REMARK  180  A    between atoms: _445  and  _446
REMARK  181  A    between atoms: _445  and  _448
REMARK  182  A    between atoms: _448  and  _449
REMARK  183  A    between atoms: _452  and  _454
REMARK  184  A    between atoms: _454  and  _455
REMARK  185  A    between atoms: _454  and  _457
REMARK  186  A    between atoms: _457  and  _458
REMARK  187  A    between atoms: _461  and  _463
REMARK  188  A    between atoms: _463  and  _464
REMARK                            x       y       z     vdW  Elec       q    Type
REMARK                         _______ _______ _______ _____ _____    ______ ____
ROOT
ATOM      1  O   HOH     1       6.804  15.665   3.646  0.00  0.00    +0.000 OA
ENDROOT
TORSDOF 0
REMARK  Name = ../refined-set-2016/1a30/1a30_pocket.pdb
REMARK  188 active torsions:
REMARK  status: ('A' for Active; 'I' for Inactive)
REMARK    1  A    between atoms: _1  and  _3
REMARK    2  A    between atoms: _3  and  _4
REMARK    3  A    between atoms: _3  and  _6
REMARK    4  A    between atoms: _6  and  _7
REMARK    5  A    between atoms: _10  and  _12
REMARK    6  A    between atoms: _12  and  _13
REMARK    7  A    between atoms: _12  and  _15
REMARK    8  A    between atoms: _15  and  _16
REMARK    9  A    between atoms: _19  and  _21
REMARK   10  A    between atoms: _21  and  _22
REMARK   11  A    between atoms: _21  and  _24
REMARK   12  A    between atoms: _24  and  _25
REMARK   13  A    between atoms: _28  and  _30
REMARK   14  A    between atoms: _30  and  _31
REMARK   15  A    between atoms: _30  and  _33
REMARK   16  A    between atoms: _33  and  _34
REMARK   17  A    between atoms: _37  and  _39
REMARK   18  A    between atoms: _39  and  _40
REMARK   19  A    between atoms: _42  and  _44
REMARK   20  A    between atoms: _44  and  _45
REMARK   21  A    between atoms: _48  and  _50
REMARK   22  A    between atoms: _50  and  _51
REMARK   23  A    between atoms: _50  and  _53
REMARK   24  A    between atoms: _53  and  _54
REMARK   25  A    between atoms: _57  and  _59
REMARK   26  A    between atoms: _59  and  _60
REMARK   27  A    between atoms: _59  and  _62
REMARK   28  A    between atoms: _62  and  _63
REMARK   29  A    between atoms: _66  and  _68
REMARK   30  A    between atoms: _68  and  _69
REMARK   31  A    between atoms: _68  and  _71
REMARK   32  A    between atoms: _71  and  _72
REMARK   33  A    between atoms: _75  and  _77
REMARK   34  A    between atoms: _77  and  _78
REMARK   35  A    between atoms: _77  and  _80
REMARK   36  A    between atoms: _83  and  _85
REMARK   37  A    between atoms: _85  and  _86
REMARK   38  A    between atoms: _85  and  _88
REMARK   39  A    between atoms: _88  and  _89
REMARK   40  A    between atoms: _89  and  _90
REMARK   41  A    between atoms: _90  and  _91
REMARK   42  A    between atoms: _91  and  _92
REMARK   43  A    between atoms: _96  and  _98
REMARK   44  A    between atoms: _98  and  _99
REMARK   45  A    between atoms: _98  and  _101
REMARK   46  A    between atoms: _101  and  _102
REMARK   47  A    between atoms: _102  and  _103
REMARK   48  A    between atoms: _105  and  _107
REMARK   49  A    between atoms: _107  and  _108
REMARK   50  A    between atoms: _107  and  _110
REMARK   51  A    between atoms: _110  and  _111
REMARK   52  A    between atoms: _114  and  _116
REMARK   53  A    between atoms: _116  and  _117
REMARK   54  A    between atoms: _119  and  _121
REMARK   55  A    between atoms: _121  and  _122
REMARK   56  A    between atoms: _124  and  _126
REMARK   57  A    between atoms: _126  and  _127
REMARK   58  A    between atoms: _126  and  _129
REMARK   59  A    between atoms: _129  and  _130
REMARK   60  A    between atoms: _133  and  _135
REMARK   61  A    between atoms: _135  and  _136
REMARK   62  A    between atoms: _138  and  _140
REMARK   63  A    between atoms: _140  and  _141
REMARK   64  A    between atoms: _143  and  _145
REMARK   65  A    between atoms: _145  and  _146
REMARK   66  A    between atoms: _145  and  _148
REMARK   67  A    between atoms: _148  and  _149
REMARK   68  A    between atoms: _155  and  _157
REMARK   69  A    between atoms: _157  and  _158
REMARK   70  A    between atoms: _157  and  _160
REMARK   71  A    between atoms: _160  and  _161
REMARK   72  A    between atoms: _164  and  _166
REMARK   73  A    between atoms: _166  and  _167
REMARK   74  A    between atoms: _166  and  _169
REMARK   75  A    between atoms: _172  and  _174
REMARK   76  A    between atoms: _174  and  _175
REMARK   77  A    between atoms: _174  and  _177
REMARK   78  A    between atoms: _177  and  _178
REMARK   79  A    between atoms: _181  and  _183
REMARK   80  A    between atoms: _183  and  _184
REMARK   81  A    between atoms: _183  and  _186
REMARK   82  A    between atoms: _186  and  _187
REMARK   83  A    between atoms: _191  and  _192
REMARK   84  A    between atoms: _197  and  _199
REMARK   85  A    between atoms: _199  and  _200
REMARK   86  A    between atoms: _199  and  _202
REMARK   87  A    between atoms: _202  and  _203
REMARK   88  A    between atoms: _206  and  _208
REMARK   89  A    between atoms: _208  and  _209
REMARK   90  A    between atoms: _208  and  _211
REMARK   91  A    between atoms: _211  and  _212
REMARK   92  A    between atoms: _215  and  _217
REMARK   93  A    between atoms: _217  and  _218
REMARK   94  A    between atoms: _220  and  _222
REMARK   95  A    between atoms: _222  and  _223
REMARK   96  A    between atoms: _222  and  _225
REMARK   97  A    between atoms: _225  and  _226
REMARK   98  A    between atoms: _226  and  _227
REMARK   99  A    between atoms: _227  and  _228
REMARK  100  A    between atoms: _237  and  _239
REMARK  101  A    between atoms: _239  and  _240
REMARK  102  A    between atoms: _239  and  _242
REMARK  103  A    between atoms: _242  and  _243
REMARK  104  A    between atoms: _248  and  _250
REMARK  105  A    between atoms: _250  and  _251
REMARK  106  A    between atoms: _250  and  _253
REMARK  107  A    between atoms: _253  and  _254
REMARK  108  A    between atoms: _254  and  _255
REMARK  109  A    between atoms: _255  and  _256
REMARK  110  A    between atoms: _266  and  _267
REMARK  111  A    between atoms: _272  and  _274
REMARK  112  A    between atoms: _274  and  _275
REMARK  113  A    between atoms: _274  and  _277
REMARK  114  A    between atoms: _277  and  _278
REMARK  115  A    between atoms: _281  and  _283
REMARK  116  A    between atoms: _283  and  _284
REMARK  117  A    between atoms: _283  and  _286
REMARK  118  A    between atoms: _286  and  _287
REMARK  119  A    between atoms: _290  and  _292
REMARK  120  A    between atoms: _292  and  _293
REMARK  121  A    between atoms: _292  and  _295
REMARK  122  A    between atoms: _295  and  _296
REMARK  123  A    between atoms: _299  and  _301
REMARK  124  A    between atoms: _301  and  _302
REMARK  125  A    between atoms: _301  and  _304
REMARK  126  A    between atoms: _304  and  _305
REMARK  127  A    between atoms: _308  and  _310
REMARK  128  A    between atoms: _310  and  _311
REMARK  129  A    between atoms: _310  and  _313
REMARK  130  A    between atoms: _313  and  _314
REMARK  131  A    between atoms: _317  and  _319
REMARK  132  A    between atoms: _319  and  _320
REMARK  133  A    between atoms: _322  and  _324
REMARK  134  A    between atoms: _324  and  _325
REMARK  135  A    between atoms: _328  and  _330
REMARK  136  A    between atoms: _330  and  _331
REMARK  137  A    between atoms: _330  and  _333
REMARK  138  A    between atoms: _333  and  _334
REMARK  139  A    between atoms: _337  and  _339
REMARK  140  A    between atoms: _339  and  _340
REMARK  141  A    between atoms: _339  and  _342
REMARK  142  A    between atoms: _342  and  _343
REMARK  143  A    between atoms: _346  and  _348
REMARK  144  A    between atoms: _348  and  _349
REMARK  145  A    between atoms: _348  and  _351
REMARK  146  A    between atoms: _354  and  _356
REMARK  147  A    between atoms: _356  and  _357
REMARK  148  A    between atoms: _356  and  _359
REMARK  149  A    between atoms: _359  and  _360
REMARK  150  A    between atoms: _363  and  _365
REMARK  151  A    between atoms: _365  and  _366
REMARK  152  A    between atoms: _368  and  _370
REMARK  153  A    between atoms: _370  and  _371
REMARK  154  A    between atoms: _373  and  _375
REMARK  155  A    between atoms: _375  and  _376
REMARK  156  A    between atoms: _375  and  _378
REMARK  157  A    between atoms: _378  and  _379
REMARK  158  A    between atoms: _382  and  _384
REMARK  159  A    between atoms: _384  and  _385
REMARK  160  A    between atoms: _387  and  _389
REMARK  161  A    between atoms: _389  and  _390
REMARK  162  A    between atoms: _392  and  _394
REMARK  163  A    between atoms: _394  and  _395
REMARK  164  A    between atoms: _394  and  _397
REMARK  165  A    between atoms: _397  and  _398
REMARK  166  A    between atoms: _402  and  _403
REMARK  167  A    between atoms: _408  and  _410
REMARK  168  A    between atoms: _410  and  _411
REMARK  169  A    between atoms: _410  and  _413
REMARK  170  A    between atoms: _413  and  _414
REMARK  171  A    between atoms: _418  and  _419
REMARK  172  A    between atoms: _424  and  _426
REMARK  173  A    between atoms: _426  and  _427
REMARK  174  A    between atoms: _426  and  _429
REMARK  175  A    between atoms: _432  and  _434
REMARK  176  A    between atoms: _434  and  _435
REMARK  177  A    between atoms: _434  and  _437
REMARK  178  A    between atoms: _437  and  _438
REMARK  179  A    between atoms: _443  and  _445
REMARK  180  A    between atoms: _445  and  _446
REMARK  181  A    between atoms: _445  and  _448
REMARK  182  A    between atoms: _448  and  _449
REMARK  183  A    between atoms: _452  and  _454
REMARK  184  A    between atoms: _454  and  _455
REMARK  185  A    between atoms: _454  and  _457
REMARK  186  A    between atoms: _457  and  _458
REMARK  187  A    between atoms: _461  and  _463
REMARK  188  A    between atoms: _463  and  _464
REMARK                            x       y       z     vdW  Elec       q    Type
REMARK                         _______ _______ _______ _____ _____    ______ ____
ROOT
ATOM      1  O   HOH     1       8.284  33.614  12.371  0.00  0.00    +0.000 OA
ENDROOT
TORSDOF 0
REMARK  Name = ../refined-set-2016/1a30/1a30_pocket.pdb
REMARK  188 active torsions:
REMARK  status: ('A' for Active; 'I' for Inactive)
REMARK    1  A    between atoms: _1  and  _3
REMARK    2  A    between atoms: _3  and  _4
REMARK    3  A    between atoms: _3  and  _6
REMARK    4  A    between atoms: _6  and  _7
REMARK    5  A    between atoms: _10  and  _12
REMARK    6  A    between atoms: _12  and  _13
REMARK    7  A    between atoms: _12  and  _15
REMARK    8  A    between atoms: _15  and  _16
REMARK    9  A    between atoms: _19  and  _21
REMARK   10  A    between atoms: _21  and  _22
REMARK   11  A    between atoms: _21  and  _24
REMARK   12  A    between atoms: _24  and  _25
REMARK   13  A    between atoms: _28  and  _30
REMARK   14  A    between atoms: _30  and  _31
REMARK   15  A    between atoms: _30  and  _33
REMARK   16  A    between atoms: _33  and  _34
REMARK   17  A    between atoms: _37  and  _39
REMARK   18  A    between atoms: _39  and  _40
REMARK   19  A    between atoms: _42  and  _44
REMARK   20  A    between atoms: _44  and  _45
REMARK   21  A    between atoms: _48  and  _50
REMARK   22  A    between atoms: _50  and  _51
REMARK   23  A    between atoms: _50  and  _53
REMARK   24  A    between atoms: _53  and  _54
REMARK   25  A    between atoms: _57  and  _59
REMARK   26  A    between atoms: _59  and  _60
REMARK   27  A    between atoms: _59  and  _62
REMARK   28  A    between atoms: _62  and  _63
REMARK   29  A    between atoms: _66  and  _68
REMARK   30  A    between atoms: _68  and  _69
REMARK   31  A    between atoms: _68  and  _71
REMARK   32  A    between atoms: _71  and  _72
REMARK   33  A    between atoms: _75  and  _77
REMARK   34  A    between atoms: _77  and  _78
REMARK   35  A    between atoms: _77  and  _80
REMARK   36  A    between atoms: _83  and  _85
REMARK   37  A    between atoms: _85  and  _86
REMARK   38  A    between atoms: _85  and  _88
REMARK   39  A    between atoms: _88  and  _89
REMARK   40  A    between atoms: _89  and  _90
REMARK   41  A    between atoms: _90  and  _91
REMARK   42  A    between atoms: _91  and  _92
REMARK   43  A    between atoms: _96  and  _98
REMARK   44  A    between atoms: _98  and  _99
REMARK   45  A    between atoms: _98  and  _101
REMARK   46  A    between atoms: _101  and  _102
REMARK   47  A    between atoms: _102  and  _103
REMARK   48  A    between atoms: _105  and  _107
REMARK   49  A    between atoms: _107  and  _108
REMARK   50  A    between atoms: _107  and  _110
REMARK   51  A    between atoms: _110  and  _111
REMARK   52  A    between atoms: _114  and  _116
REMARK   53  A    between atoms: _116  and  _117
REMARK   54  A    between atoms: _119  and  _121
REMARK   55  A    between atoms: _121  and  _122
REMARK   56  A    between atoms: _124  and  _126
REMARK   57  A    between atoms: _126  and  _127
REMARK   58  A    between atoms: _126  and  _129
REMARK   59  A    between atoms: _129  and  _130
REMARK   60  A    between atoms: _133  and  _135
REMARK   61  A    between atoms: _135  and  _136
REMARK   62  A    between atoms: _138  and  _140
REMARK   63  A    between atoms: _140  and  _141
REMARK   64  A    between atoms: _143  and  _145
REMARK   65  A    between atoms: _145  and  _146
REMARK   66  A    between atoms: _145  and  _148
REMARK   67  A    between atoms: _148  and  _149
REMARK   68  A    between atoms: _155  and  _157
REMARK   69  A    between atoms: _157  and  _158
REMARK   70  A    between atoms: _157  and  _160
REMARK   71  A    between atoms: _160  and  _161
REMARK   72  A    between atoms: _164  and  _166
REMARK   73  A    between atoms: _166  and  _167
REMARK   74  A    between atoms: _166  and  _169
REMARK   75  A    between atoms: _172  and  _174
REMARK   76  A    between atoms: _174  and  _175
REMARK   77  A    between atoms: _174  and  _177
REMARK   78  A    between atoms: _177  and  _178
REMARK   79  A    between atoms: _181  and  _183
REMARK   80  A    between atoms: _183  and  _184
REMARK   81  A    between atoms: _183  and  _186
REMARK   82  A    between atoms: _186  and  _187
REMARK   83  A    between atoms: _191  and  _192
REMARK   84  A    between atoms: _197  and  _199
REMARK   85  A    between atoms: _199  and  _200
REMARK   86  A    between atoms: _199  and  _202
REMARK   87  A    between atoms: _202  and  _203
REMARK   88  A    between atoms: _206  and  _208
REMARK   89  A    between atoms: _208  and  _209
REMARK   90  A    between atoms: _208  and  _211
REMARK   91  A    between atoms: _211  and  _212
REMARK   92  A    between atoms: _215  and  _217
REMARK   93  A    between atoms: _217  and  _218
REMARK   94  A    between atoms: _220  and  _222
REMARK   95  A    between atoms: _222  and  _223
REMARK   96  A    between atoms: _222  and  _225
REMARK   97  A    between atoms: _225  and  _226
REMARK   98  A    between atoms: _226  and  _227
REMARK   99  A    between atoms: _227  and  _228
REMARK  100  A    between atoms: _237  and  _239
REMARK  101  A    between atoms: _239  and  _240
REMARK  102  A    between atoms: _239  and  _242
REMARK  103  A    between atoms: _242  and  _243
REMARK  104  A    between atoms: _248  and  _250
REMARK  105  A    between atoms: _250  and  _251
REMARK  106  A    between atoms: _250  and  _253
REMARK  107  A    between atoms: _253  and  _254
REMARK  108  A    between atoms: _254  and  _255
REMARK  109  A    between atoms: _255  and  _256
REMARK  110  A    between atoms: _266  and  _267
REMARK  111  A    between atoms: _272  and  _274
REMARK  112  A    between atoms: _274  and  _275
REMARK  113  A    between atoms: _274  and  _277
REMARK  114  A    between atoms: _277  and  _278
REMARK  115  A    between atoms: _281  and  _283
REMARK  116  A    between atoms: _283  and  _284
REMARK  117  A    between atoms: _283  and  _286
REMARK  118  A    between atoms: _286  and  _287
REMARK  119  A    between atoms: _290  and  _292
REMARK  120  A    between atoms: _292  and  _293
REMARK  121  A    between atoms: _292  and  _295
REMARK  122  A    between atoms: _295  and  _296
REMARK  123  A    between atoms: _299  and  _301
REMARK  124  A    between atoms: _301  and  _302
REMARK  125  A    between atoms: _301  and  _304
REMARK  126  A    between atoms: _304  and  _305
REMARK  127  A    between atoms: _308  and  _310
REMARK  128  A    between atoms: _310  and  _311
REMARK  129  A    between atoms: _310  and  _313
REMARK  130  A    between atoms: _313  and  _314
REMARK  131  A    between atoms: _317  and  _319
REMARK  132  A    between atoms: _319  and  _320
REMARK  133  A    between atoms: _322  and  _324
REMARK  134  A    between atoms: _324  and  _325
REMARK  135  A    between atoms: _328  and  _330
REMARK  136  A    between atoms: _330  and  _331
REMARK  137  A    between atoms: _330  and  _333
REMARK  138  A    between atoms: _333  and  _334
REMARK  139  A    between atoms: _337  and  _339
REMARK  140  A    between atoms: _339  and  _340
REMARK  141  A    between atoms: _339  and  _342
REMARK  142  A    between atoms: _342  and  _343
REMARK  143  A    between atoms: _346  and  _348
REMARK  144  A    between atoms: _348  and  _349
REMARK  145  A    between atoms: _348  and  _351
REMARK  146  A    between atoms: _354  and  _356
REMARK  147  A    between atoms: _356  and  _357
REMARK  148  A    between atoms: _356  and  _359
REMARK  149  A    between atoms: _359  and  _360
REMARK  150  A    between atoms: _363  and  _365
REMARK  151  A    between atoms: _365  and  _366
REMARK  152  A    between atoms: _368  and  _370
REMARK  153  A    between atoms: _370  and  _371
REMARK  154  A    between atoms: _373  and  _375
REMARK  155  A    between atoms: _375  and  _376
REMARK  156  A    between atoms: _375  and  _378
REMARK  157  A    between atoms: _378  and  _379
REMARK  158  A    between atoms: _382  and  _384
REMARK  159  A    between atoms: _384  and  _385
REMARK  160  A    between atoms: _387  and  _389
REMARK  161  A    between atoms: _389  and  _390
REMARK  162  A    between atoms: _392  and  _394
REMARK  163  A    between atoms: _394  and  _395
REMARK  164  A    between atoms: _394  and  _397
REMARK  165  A    between atoms: _397  and  _398
REMARK  166  A    between atoms: _402  and  _403
REMARK  167  A    between atoms: _408  and  _410
REMARK  168  A    between atoms: _410  and  _411
REMARK  169  A    between atoms: _410  and  _413
REMARK  170  A    between atoms: _413  and  _414
REMARK  171  A    between atoms: _418  and  _419
REMARK  172  A    between atoms: _424  and  _426
REMARK  173  A    between atoms: _426  and  _427
REMARK  174  A    between atoms: _426  and  _429
REMARK  175  A    between atoms: _432  and  _434
REMARK  176  A    between atoms: _434  and  _435
REMARK  177  A    between atoms: _434  and  _437
REMARK  178  A    between atoms: _437  and  _438
REMARK  179  A    between atoms: _443  and  _445
REMARK  180  A    between atoms: _445  and  _446
REMARK  181  A    between atoms: _445  and  _448
REMARK  182  A    between atoms: _448  and  _449
REMARK  183  A    between atoms: _452  and  _454
REMARK  184  A    between atoms: _454  and  _455
REMARK  185  A    between atoms: _454  and  _457
REMARK  186  A    between atoms: _457  and  _458
REMARK  187  A    between atoms: _461  and  _463
REMARK  188  A    between atoms: _463  and  _464
REMARK                            x       y       z     vdW  Elec       q    Type
REMARK                         _______ _______ _______ _____ _____    ______ ____
ROOT
ATOM      1  O   HOH     1       6.372  35.689   9.043  0.00  0.00    +0.000 OA
ENDROOT
TORSDOF 0
REMARK  Name = ../refined-set-2016/1a30/1a30_pocket.pdb
REMARK  188 active torsions:
REMARK  status: ('A' for Active; 'I' for Inactive)
REMARK    1  A    between atoms: _1  and  _3
REMARK    2  A    between atoms: _3  and  _4
REMARK    3  A    between atoms: _3  and  _6
REMARK    4  A    between atoms: _6  and  _7
REMARK    5  A    between atoms: _10  and  _12
REMARK    6  A    between atoms: _12  and  _13
REMARK    7  A    between atoms: _12  and  _15
REMARK    8  A    between atoms: _15  and  _16
REMARK    9  A    between atoms: _19  and  _21
REMARK   10  A    between atoms: _21  and  _22
REMARK   11  A    between atoms: _21  and  _24
REMARK   12  A    between atoms: _24  and  _25
REMARK   13  A    between atoms: _28  and  _30
REMARK   14  A    between atoms: _30  and  _31
REMARK   15  A    between atoms: _30  and  _33
REMARK   16  A    between atoms: _33  and  _34
REMARK   17  A    between atoms: _37  and  _39
REMARK   18  A    between atoms: _39  and  _40
REMARK   19  A    between atoms: _42  and  _44
REMARK   20  A    between atoms: _44  and  _45
REMARK   21  A    between atoms: _48  and  _50
REMARK   22  A    between atoms: _50  and  _51
REMARK   23  A    between atoms: _50  and  _53
REMARK   24  A    between atoms: _53  and  _54
REMARK   25  A    between atoms: _57  and  _59
REMARK   26  A    between atoms: _59  and  _60
REMARK   27  A    between atoms: _59  and  _62
REMARK   28  A    between atoms: _62  and  _63
REMARK   29  A    between atoms: _66  and  _68
REMARK   30  A    between atoms: _68  and  _69
REMARK   31  A    between atoms: _68  and  _71
REMARK   32  A    between atoms: _71  and  _72
REMARK   33  A    between atoms: _75  and  _77
REMARK   34  A    between atoms: _77  and  _78
REMARK   35  A    between atoms: _77  and  _80
REMARK   36  A    between atoms: _83  and  _85
REMARK   37  A    between atoms: _85  and  _86
REMARK   38  A    between atoms: _85  and  _88
REMARK   39  A    between atoms: _88  and  _89
REMARK   40  A    between atoms: _89  and  _90
REMARK   41  A    between atoms: _90  and  _91
REMARK   42  A    between atoms: _91  and  _92
REMARK   43  A    between atoms: _96  and  _98
REMARK   44  A    between atoms: _98  and  _99
REMARK   45  A    between atoms: _98  and  _101
REMARK   46  A    between atoms: _101  and  _102
REMARK   47  A    between atoms: _102  and  _103
REMARK   48  A    between atoms: _105  and  _107
REMARK   49  A    between atoms: _107  and  _108
REMARK   50  A    between atoms: _107  and  _110
REMARK   51  A    between atoms: _110  and  _111
REMARK   52  A    between atoms: _114  and  _116
REMARK   53  A    between atoms: _116  and  _117
REMARK   54  A    between atoms: _119  and  _121
REMARK   55  A    between atoms: _121  and  _122
REMARK   56  A    between atoms: _124  and  _126
REMARK   57  A    between atoms: _126  and  _127
REMARK   58  A    between atoms: _126  and  _129
REMARK   59  A    between atoms: _129  and  _130
REMARK   60  A    between atoms: _133  and  _135
REMARK   61  A    between atoms: _135  and  _136
REMARK   62  A    between atoms: _138  and  _140
REMARK   63  A    between atoms: _140  and  _141
REMARK   64  A    between atoms: _143  and  _145
REMARK   65  A    between atoms: _145  and  _146
REMARK   66  A    between atoms: _145  and  _148
REMARK   67  A    between atoms: _148  and  _149
REMARK   68  A    between atoms: _155  and  _157
REMARK   69  A    between atoms: _157  and  _158
REMARK   70  A    between atoms: _157  and  _160
REMARK   71  A    between atoms: _160  and  _161
REMARK   72  A    between atoms: _164  and  _166
REMARK   73  A    between atoms: _166  and  _167
REMARK   74  A    between atoms: _166  and  _169
REMARK   75  A    between atoms: _172  and  _174
REMARK   76  A    between atoms: _174  and  _175
REMARK   77  A    between atoms: _174  and  _177
REMARK   78  A    between atoms: _177  and  _178
REMARK   79  A    between atoms: _181  and  _183
REMARK   80  A    between atoms: _183  and  _184
REMARK   81  A    between atoms: _183  and  _186
REMARK   82  A    between atoms: _186  and  _187
REMARK   83  A    between atoms: _191  and  _192
REMARK   84  A    between atoms: _197  and  _199
REMARK   85  A    between atoms: _199  and  _200
REMARK   86  A    between atoms: _199  and  _202
REMARK   87  A    between atoms: _202  and  _203
REMARK   88  A    between atoms: _206  and  _208
REMARK   89  A    between atoms: _208  and  _209
REMARK   90  A    between atoms: _208  and  _211
REMARK   91  A    between atoms: _211  and  _212
REMARK   92  A    between atoms: _215  and  _217
REMARK   93  A    between atoms: _217  and  _218
REMARK   94  A    between atoms: _220  and  _222
REMARK   95  A    between atoms: _222  and  _223
REMARK   96  A    between atoms: _222  and  _225
REMARK   97  A    between atoms: _225  and  _226
REMARK   98  A    between atoms: _226  and  _227
REMARK   99  A    between atoms: _227  and  _228
REMARK  100  A    between atoms: _237  and  _239
REMARK  101  A    between atoms: _239  and  _240
REMARK  102  A    between atoms: _239  and  _242
REMARK  103  A    between atoms: _242  and  _243
REMARK  104  A    between atoms: _248  and  _250
REMARK  105  A    between atoms: _250  and  _251
REMARK  106  A    between atoms: _250  and  _253
REMARK  107  A    between atoms: _253  and  _254
REMARK  108  A    between atoms: _254  and  _255
REMARK  109  A    between atoms: _255  and  _256
REMARK  110  A    between atoms: _266  and  _267
REMARK  111  A    between atoms: _272  and  _274
REMARK  112  A    between atoms: _274  and  _275
REMARK  113  A    between atoms: _274  and  _277
REMARK  114  A    between atoms: _277  and  _278
REMARK  115  A    between atoms: _281  and  _283
REMARK  116  A    between atoms: _283  and  _284
REMARK  117  A    between atoms: _283  and  _286
REMARK  118  A    between atoms: _286  and  _287
REMARK  119  A    between atoms: _290  and  _292
REMARK  120  A    between atoms: _292  and  _293
REMARK  121  A    between atoms: _292  and  _295
REMARK  122  A    between atoms: _295  and  _296
REMARK  123  A    between atoms: _299  and  _301
REMARK  124  A    between atoms: _301  and  _302
REMARK  125  A    between atoms: _301  and  _304
REMARK  126  A    between atoms: _304  and  _305
REMARK  127  A    between atoms: _308  and  _310
REMARK  128  A    between atoms: _310  and  _311
REMARK  129  A    between atoms: _310  and  _313
REMARK  130  A    between atoms: _313  and  _314
REMARK  131  A    between atoms: _317  and  _319
REMARK  132  A    between atoms: _319  and  _320
REMARK  133  A    between atoms: _322  and  _324
REMARK  134  A    between atoms: _324  and  _325
REMARK  135  A    between atoms: _328  and  _330
REMARK  136  A    between atoms: _330  and  _331
REMARK  137  A    between atoms: _330  and  _333
REMARK  138  A    between atoms: _333  and  _334
REMARK  139  A    between atoms: _337  and  _339
REMARK  140  A    between atoms: _339  and  _340
REMARK  141  A    between atoms: _339  and  _342
REMARK  142  A    between atoms: _342  and  _343
REMARK  143  A    between atoms: _346  and  _348
REMARK  144  A    between atoms: _348  and  _349
REMARK  145  A    between atoms: _348  and  _351
REMARK  146  A    between atoms: _354  and  _356
REMARK  147  A    between atoms: _356  and  _357
REMARK  148  A    between atoms: _356  and  _359
REMARK  149  A    between atoms: _359  and  _360
REMARK  150  A    between atoms: _363  and  _365
REMARK  151  A    between atoms: _365  and  _366
REMARK  152  A    between atoms: _368  and  _370
REMARK  153  A    between atoms: _370  and  _371
REMARK  154  A    between atoms: _373  and  _375
REMARK  155  A    between atoms: _375  and  _376
REMARK  156  A    between atoms: _375  and  _378
REMARK  157  A    between atoms: _378  and  _379
REMARK  158  A    between atoms: _382  and  _384
REMARK  159  A    between atoms: _384  and  _385
REMARK  160  A    between atoms: _387  and  _389
REMARK  161  A    between atoms: _389  and  _390
REMARK  162  A    between atoms: _392  and  _394
REMARK  163  A    between atoms: _394  and  _395
REMARK  164  A    between atoms: _394  and  _397
REMARK  165  A    between atoms: _397  and  _398
REMARK  166  A    between atoms: _402  and  _403
REMARK  167  A    between atoms: _408  and  _410
REMARK  168  A    between atoms: _410  and  _411
REMARK  169  A    between atoms: _410  and  _413
REMARK  170  A    between atoms: _413  and  _414
REMARK  171  A    between atoms: _418  and  _419
REMARK  172  A    between atoms: _424  and  _426
REMARK  173  A    between atoms: _426  and  _427
REMARK  174  A    between atoms: _426  and  _429
REMARK  175  A    between atoms: _432  and  _434
REMARK  176  A    between atoms: _434  and  _435
REMARK  177  A    between atoms: _434  and  _437
REMARK  178  A    between atoms: _437  and  _438
REMARK  179  A    between atoms: _443  and  _445
REMARK  180  A    between atoms: _445  and  _446
REMARK  181  A    between atoms: _445  and  _448
REMARK  182  A    between atoms: _448  and  _449
REMARK  183  A    between atoms: _452  and  _454
REMARK  184  A    between atoms: _454  and  _455
REMARK  185  A    between atoms: _454  and  _457
REMARK  186  A    between atoms: _457  and  _458
REMARK  187  A    between atoms: _461  and  _463
REMARK  188  A    between atoms: _463  and  _464
REMARK                            x       y       z     vdW  Elec       q    Type
REMARK                         _______ _______ _______ _____ _____    ______ ____
ROOT
ATOM      1  O   HOH     1       8.848  28.866   2.119  0.00  0.00    +0.000 OA
ENDROOT
TORSDOF 0
REMARK  Name = ../refined-set-2016/1a30/1a30_pocket.pdb
REMARK  188 active torsions:
REMARK  status: ('A' for Active; 'I' for Inactive)
REMARK    1  A    between atoms: _1  and  _3
REMARK    2  A    between atoms: _3  and  _4
REMARK    3  A    between atoms: _3  and  _6
REMARK    4  A    between atoms: _6  and  _7
REMARK    5  A    between atoms: _10  and  _12
REMARK    6  A    between atoms: _12  and  _13
REMARK    7  A    between atoms: _12  and  _15
REMARK    8  A    between atoms: _15  and  _16
REMARK    9  A    between atoms: _19  and  _21
REMARK   10  A    between atoms: _21  and  _22
REMARK   11  A    between atoms: _21  and  _24
REMARK   12  A    between atoms: _24  and  _25
REMARK   13  A    between atoms: _28  and  _30
REMARK   14  A    between atoms: _30  and  _31
REMARK   15  A    between atoms: _30  and  _33
REMARK   16  A    between atoms: _33  and  _34
REMARK   17  A    between atoms: _37  and  _39
REMARK   18  A    between atoms: _39  and  _40
REMARK   19  A    between atoms: _42  and  _44
REMARK   20  A    between atoms: _44  and  _45
REMARK   21  A    between atoms: _48  and  _50
REMARK   22  A    between atoms: _50  and  _51
REMARK   23  A    between atoms: _50  and  _53
REMARK   24  A    between atoms: _53  and  _54
REMARK   25  A    between atoms: _57  and  _59
REMARK   26  A    between atoms: _59  and  _60
REMARK   27  A    between atoms: _59  and  _62
REMARK   28  A    between atoms: _62  and  _63
REMARK   29  A    between atoms: _66  and  _68
REMARK   30  A    between atoms: _68  and  _69
REMARK   31  A    between atoms: _68  and  _71
REMARK   32  A    between atoms: _71  and  _72
REMARK   33  A    between atoms: _75  and  _77
REMARK   34  A    between atoms: _77  and  _78
REMARK   35  A    between atoms: _77  and  _80
REMARK   36  A    between atoms: _83  and  _85
REMARK   37  A    between atoms: _85  and  _86
REMARK   38  A    between atoms: _85  and  _88
REMARK   39  A    between atoms: _88  and  _89
REMARK   40  A    between atoms: _89  and  _90
REMARK   41  A    between atoms: _90  and  _91
REMARK   42  A    between atoms: _91  and  _92
REMARK   43  A    between atoms: _96  and  _98
REMARK   44  A    between atoms: _98  and  _99
REMARK   45  A    between atoms: _98  and  _101
REMARK   46  A    between atoms: _101  and  _102
REMARK   47  A    between atoms: _102  and  _103
REMARK   48  A    between atoms: _105  and  _107
REMARK   49  A    between atoms: _107  and  _108
REMARK   50  A    between atoms: _107  and  _110
REMARK   51  A    between atoms: _110  and  _111
REMARK   52  A    between atoms: _114  and  _116
REMARK   53  A    between atoms: _116  and  _117
REMARK   54  A    between atoms: _119  and  _121
REMARK   55  A    between atoms: _121  and  _122
REMARK   56  A    between atoms: _124  and  _126
REMARK   57  A    between atoms: _126  and  _127
REMARK   58  A    between atoms: _126  and  _129
REMARK   59  A    between atoms: _129  and  _130
REMARK   60  A    between atoms: _133  and  _135
REMARK   61  A    between atoms: _135  and  _136
REMARK   62  A    between atoms: _138  and  _140
REMARK   63  A    between atoms: _140  and  _141
REMARK   64  A    between atoms: _143  and  _145
REMARK   65  A    between atoms: _145  and  _146
REMARK   66  A    between atoms: _145  and  _148
REMARK   67  A    between atoms: _148  and  _149
REMARK   68  A    between atoms: _155  and  _157
REMARK   69  A    between atoms: _157  and  _158
REMARK   70  A    between atoms: _157  and  _160
REMARK   71  A    between atoms: _160  and  _161
REMARK   72  A    between atoms: _164  and  _166
REMARK   73  A    between atoms: _166  and  _167
REMARK   74  A    between atoms: _166  and  _169
REMARK   75  A    between atoms: _172  and  _174
REMARK   76  A    between atoms: _174  and  _175
REMARK   77  A    between atoms: _174  and  _177
REMARK   78  A    between atoms: _177  and  _178
REMARK   79  A    between atoms: _181  and  _183
REMARK   80  A    between atoms: _183  and  _184
REMARK   81  A    between atoms: _183  and  _186
REMARK   82  A    between atoms: _186  and  _187
REMARK   83  A    between atoms: _191  and  _192
REMARK   84  A    between atoms: _197  and  _199
REMARK   85  A    between atoms: _199  and  _200
REMARK   86  A    between atoms: _199  and  _202
REMARK   87  A    between atoms: _202  and  _203
REMARK   88  A    between atoms: _206  and  _208
REMARK   89  A    between atoms: _208  and  _209
REMARK   90  A    between atoms: _208  and  _211
REMARK   91  A    between atoms: _211  and  _212
REMARK   92  A    between atoms: _215  and  _217
REMARK   93  A    between atoms: _217  and  _218
REMARK   94  A    between atoms: _220  and  _222
REMARK   95  A    between atoms: _222  and  _223
REMARK   96  A    between atoms: _222  and  _225
REMARK   97  A    between atoms: _225  and  _226
REMARK   98  A    between atoms: _226  and  _227
REMARK   99  A    between atoms: _227  and  _228
REMARK  100  A    between atoms: _237  and  _239
REMARK  101  A    between atoms: _239  and  _240
REMARK  102  A    between atoms: _239  and  _242
REMARK  103  A    between atoms: _242  and  _243
REMARK  104  A    between atoms: _248  and  _250
REMARK  105  A    between atoms: _250  and  _251
REMARK  106  A    between atoms: _250  and  _253
REMARK  107  A    between atoms: _253  and  _254
REMARK  108  A    between atoms: _254  and  _255
REMARK  109  A    between atoms: _255  and  _256
REMARK  110  A    between atoms: _266  and  _267
REMARK  111  A    between atoms: _272  and  _274
REMARK  112  A    between atoms: _274  and  _275
REMARK  113  A    between atoms: _274  and  _277
REMARK  114  A    between atoms: _277  and  _278
REMARK  115  A    between atoms: _281  and  _283
REMARK  116  A    between atoms: _283  and  _284
REMARK  117  A    between atoms: _283  and  _286
REMARK  118  A    between atoms: _286  and  _287
REMARK  119  A    between atoms: _290  and  _292
REMARK  120  A    between atoms: _292  and  _293
REMARK  121  A    between atoms: _292  and  _295
REMARK  122  A    between atoms: _295  and  _296
REMARK  123  A    between atoms: _299  and  _301
REMARK  124  A    between atoms: _301  and  _302
REMARK  125  A    between atoms: _301  and  _304
REMARK  126  A    between atoms: _304  and  _305
REMARK  127  A    between atoms: _308  and  _310
REMARK  128  A    between atoms: _310  and  _311
REMARK  129  A    between atoms: _310  and  _313
REMARK  130  A    between atoms: _313  and  _314
REMARK  131  A    between atoms: _317  and  _319
REMARK  132  A    between atoms: _319  and  _320
REMARK  133  A    between atoms: _322  and  _324
REMARK  134  A    between atoms: _324  and  _325
REMARK  135  A    between atoms: _328  and  _330
REMARK  136  A    between atoms: _330  and  _331
REMARK  137  A    between atoms: _330  and  _333
REMARK  138  A    between atoms: _333  and  _334
REMARK  139  A    between atoms: _337  and  _339
REMARK  140  A    between atoms: _339  and  _340
REMARK  141  A    between atoms: _339  and  _342
REMARK  142  A    between atoms: _342  and  _343
REMARK  143  A    between atoms: _346  and  _348
REMARK  144  A    between atoms: _348  and  _349
REMARK  145  A    between atoms: _348  and  _351
REMARK  146  A    between atoms: _354  and  _356
REMARK  147  A    between atoms: _356  and  _357
REMARK  148  A    between atoms: _356  and  _359
REMARK  149  A    between atoms: _359  and  _360
REMARK  150  A    between atoms: _363  and  _365
REMARK  151  A    between atoms: _365  and  _366
REMARK  152  A    between atoms: _368  and  _370
REMARK  153  A    between atoms: _370  and  _371
REMARK  154  A    between atoms: _373  and  _375
REMARK  155  A    between atoms: _375  and  _376
REMARK  156  A    between atoms: _375  and  _378
REMARK  157  A    between atoms: _378  and  _379
REMARK  158  A    between atoms: _382  and  _384
REMARK  159  A    between atoms: _384  and  _385
REMARK  160  A    between atoms: _387  and  _389
REMARK  161  A    between atoms: _389  and  _390
REMARK  162  A    between atoms: _392  and  _394
REMARK  163  A    between atoms: _394  and  _395
REMARK  164  A    between atoms: _394  and  _397
REMARK  165  A    between atoms: _397  and  _398
REMARK  166  A    between atoms: _402  and  _403
REMARK  167  A    between atoms: _408  and  _410
REMARK  168  A    between atoms: _410  and  _411
REMARK  169  A    between atoms: _410  and  _413
REMARK  170  A    between atoms: _413  and  _414
REMARK  171  A    between atoms: _418  and  _419
REMARK  172  A    between atoms: _424  and  _426
REMARK  173  A    between atoms: _426  and  _427
REMARK  174  A    between atoms: _426  and  _429
REMARK  175  A    between atoms: _432  and  _434
REMARK  176  A    between atoms: _434  and  _435
REMARK  177  A    between atoms: _434  and  _437
REMARK  178  A    between atoms: _437  and  _438
REMARK  179  A    between atoms: _443  and  _445
REMARK  180  A    between atoms: _445  and  _446
REMARK  181  A    between atoms: _445  and  _448
REMARK  182  A    between atoms: _448  and  _449
REMARK  183  A    between atoms: _452  and  _454
REMARK  184  A    between atoms: _454  and  _455
REMARK  185  A    between atoms: _454  and  _457
REMARK  186  A    between atoms: _457  and  _458
REMARK  187  A    between atoms: _461  and  _463
REMARK  188  A    between atoms: _463  and  _464
REMARK                            x       y       z     vdW  Elec       q    Type
REMARK                         _______ _______ _______ _____ _____    ______ ____
ROOT
ATOM      1  O   HOH     1      10.678  30.655   1.467  0.00  0.00    +0.000 OA
ENDROOT
TORSDOF 0
REMARK  Name = ../refined-set-2016/1a30/1a30_pocket.pdb
REMARK  188 active torsions:
REMARK  status: ('A' for Active; 'I' for Inactive)
REMARK    1  A    between atoms: _1  and  _3
REMARK    2  A    between atoms: _3  and  _4
REMARK    3  A    between atoms: _3  and  _6
REMARK    4  A    between atoms: _6  and  _7
REMARK    5  A    between atoms: _10  and  _12
REMARK    6  A    between atoms: _12  and  _13
REMARK    7  A    between atoms: _12  and  _15
REMARK    8  A    between atoms: _15  and  _16
REMARK    9  A    between atoms: _19  and  _21
REMARK   10  A    between atoms: _21  and  _22
REMARK   11  A    between atoms: _21  and  _24
REMARK   12  A    between atoms: _24  and  _25
REMARK   13  A    between atoms: _28  and  _30
REMARK   14  A    between atoms: _30  and  _31
REMARK   15  A    between atoms: _30  and  _33
REMARK   16  A    between atoms: _33  and  _34
REMARK   17  A    between atoms: _37  and  _39
REMARK   18  A    between atoms: _39  and  _40
REMARK   19  A    between atoms: _42  and  _44
REMARK   20  A    between atoms: _44  and  _45
REMARK   21  A    between atoms: _48  and  _50
REMARK   22  A    between atoms: _50  and  _51
REMARK   23  A    between atoms: _50  and  _53
REMARK   24  A    between atoms: _53  and  _54
REMARK   25  A    between atoms: _57  and  _59
REMARK   26  A    between atoms: _59  and  _60
REMARK   27  A    between atoms: _59  and  _62
REMARK   28  A    between atoms: _62  and  _63
REMARK   29  A    between atoms: _66  and  _68
REMARK   30  A    between atoms: _68  and  _69
REMARK   31  A    between atoms: _68  and  _71
REMARK   32  A    between atoms: _71  and  _72
REMARK   33  A    between atoms: _75  and  _77
REMARK   34  A    between atoms: _77  and  _78
REMARK   35  A    between atoms: _77  and  _80
REMARK   36  A    between atoms: _83  and  _85
REMARK   37  A    between atoms: _85  and  _86
REMARK   38  A    between atoms: _85  and  _88
REMARK   39  A    between atoms: _88  and  _89
REMARK   40  A    between atoms: _89  and  _90
REMARK   41  A    between atoms: _90  and  _91
REMARK   42  A    between atoms: _91  and  _92
REMARK   43  A    between atoms: _96  and  _98
REMARK   44  A    between atoms: _98  and  _99
REMARK   45  A    between atoms: _98  and  _101
REMARK   46  A    between atoms: _101  and  _102
REMARK   47  A    between atoms: _102  and  _103
REMARK   48  A    between atoms: _105  and  _107
REMARK   49  A    between atoms: _107  and  _108
REMARK   50  A    between atoms: _107  and  _110
REMARK   51  A    between atoms: _110  and  _111
REMARK   52  A    between atoms: _114  and  _116
REMARK   53  A    between atoms: _116  and  _117
REMARK   54  A    between atoms: _119  and  _121
REMARK   55  A    between atoms: _121  and  _122
REMARK   56  A    between atoms: _124  and  _126
REMARK   57  A    between atoms: _126  and  _127
REMARK   58  A    between atoms: _126  and  _129
REMARK   59  A    between atoms: _129  and  _130
REMARK   60  A    between atoms: _133  and  _135
REMARK   61  A    between atoms: _135  and  _136
REMARK   62  A    between atoms: _138  and  _140
REMARK   63  A    between atoms: _140  and  _141
REMARK   64  A    between atoms: _143  and  _145
REMARK   65  A    between atoms: _145  and  _146
REMARK   66  A    between atoms: _145  and  _148
REMARK   67  A    between atoms: _148  and  _149
REMARK   68  A    between atoms: _155  and  _157
REMARK   69  A    between atoms: _157  and  _158
REMARK   70  A    between atoms: _157  and  _160
REMARK   71  A    between atoms: _160  and  _161
REMARK   72  A    between atoms: _164  and  _166
REMARK   73  A    between atoms: _166  and  _167
REMARK   74  A    between atoms: _166  and  _169
REMARK   75  A    between atoms: _172  and  _174
REMARK   76  A    between atoms: _174  and  _175
REMARK   77  A    between atoms: _174  and  _177
REMARK   78  A    between atoms: _177  and  _178
REMARK   79  A    between atoms: _181  and  _183
REMARK   80  A    between atoms: _183  and  _184
REMARK   81  A    between atoms: _183  and  _186
REMARK   82  A    between atoms: _186  and  _187
REMARK   83  A    between atoms: _191  and  _192
REMARK   84  A    between atoms: _197  and  _199
REMARK   85  A    between atoms: _199  and  _200
REMARK   86  A    between atoms: _199  and  _202
REMARK   87  A    between atoms: _202  and  _203
REMARK   88  A    between atoms: _206  and  _208
REMARK   89  A    between atoms: _208  and  _209
REMARK   90  A    between atoms: _208  and  _211
REMARK   91  A    between atoms: _211  and  _212
REMARK   92  A    between atoms: _215  and  _217
REMARK   93  A    between atoms: _217  and  _218
REMARK   94  A    between atoms: _220  and  _222
REMARK   95  A    between atoms: _222  and  _223
REMARK   96  A    between atoms: _222  and  _225
REMARK   97  A    between atoms: _225  and  _226
REMARK   98  A    between atoms: _226  and  _227
REMARK   99  A    between atoms: _227  and  _228
REMARK  100  A    between atoms: _237  and  _239
REMARK  101  A    between atoms: _239  and  _240
REMARK  102  A    between atoms: _239  and  _242
REMARK  103  A    between atoms: _242  and  _243
REMARK  104  A    between atoms: _248  and  _250
REMARK  105  A    between atoms: _250  and  _251
REMARK  106  A    between atoms: _250  and  _253
REMARK  107  A    between atoms: _253  and  _254
REMARK  108  A    between atoms: _254  and  _255
REMARK  109  A    between atoms: _255  and  _256
REMARK  110  A    between atoms: _266  and  _267
REMARK  111  A    between atoms: _272  and  _274
REMARK  112  A    between atoms: _274  and  _275
REMARK  113  A    between atoms: _274  and  _277
REMARK  114  A    between atoms: _277  and  _278
REMARK  115  A    between atoms: _281  and  _283
REMARK  116  A    between atoms: _283  and  _284
REMARK  117  A    between atoms: _283  and  _286
REMARK  118  A    between atoms: _286  and  _287
REMARK  119  A    between atoms: _290  and  _292
REMARK  120  A    between atoms: _292  and  _293
REMARK  121  A    between atoms: _292  and  _295
REMARK  122  A    between atoms: _295  and  _296
REMARK  123  A    between atoms: _299  and  _301
REMARK  124  A    between atoms: _301  and  _302
REMARK  125  A    between atoms: _301  and  _304
REMARK  126  A    between atoms: _304  and  _305
REMARK  127  A    between atoms: _308  and  _310
REMARK  128  A    between atoms: _310  and  _311
REMARK  129  A    between atoms: _310  and  _313
REMARK  130  A    between atoms: _313  and  _314
REMARK  131  A    between atoms: _317  and  _319
REMARK  132  A    between atoms: _319  and  _320
REMARK  133  A    between atoms: _322  and  _324
REMARK  134  A    between atoms: _324  and  _325
REMARK  135  A    between atoms: _328  and  _330
REMARK  136  A    between atoms: _330  and  _331
REMARK  137  A    between atoms: _330  and  _333
REMARK  138  A    between atoms: _333  and  _334
REMARK  139  A    between atoms: _337  and  _339
REMARK  140  A    between atoms: _339  and  _340
REMARK  141  A    between atoms: _339  and  _342
REMARK  142  A    between atoms: _342  and  _343
REMARK  143  A    between atoms: _346  and  _348
REMARK  144  A    between atoms: _348  and  _349
REMARK  145  A    between atoms: _348  and  _351
REMARK  146  A    between atoms: _354  and  _356
REMARK  147  A    between atoms: _356  and  _357
REMARK  148  A    between atoms: _356  and  _359
REMARK  149  A    between atoms: _359  and  _360
REMARK  150  A    between atoms: _363  and  _365
REMARK  151  A    between atoms: _365  and  _366
REMARK  152  A    between atoms: _368  and  _370
REMARK  153  A    between atoms: _370  and  _371
REMARK  154  A    between atoms: _373  and  _375
REMARK  155  A    between atoms: _375  and  _376
REMARK  156  A    between atoms: _375  and  _378
REMARK  157  A    between atoms: _378  and  _379
REMARK  158  A    between atoms: _382  and  _384
REMARK  159  A    between atoms: _384  and  _385
REMARK  160  A    between atoms: _387  and  _389
REMARK  161  A    between atoms: _389  and  _390
REMARK  162  A    between atoms: _392  and  _394
REMARK  163  A    between atoms: _394  and  _395
REMARK  164  A    between atoms: _394  and  _397
REMARK  165  A    between atoms: _397  and  _398
REMARK  166  A    between atoms: _402  and  _403
REMARK  167  A    between atoms: _408  and  _410
REMARK  168  A    between atoms: _410  and  _411
REMARK  169  A    between atoms: _410  and  _413
REMARK  170  A    between atoms: _413  and  _414
REMARK  171  A    between atoms: _418  and  _419
REMARK  172  A    between atoms: _424  and  _426
REMARK  173  A    between atoms: _426  and  _427
REMARK  174  A    between atoms: _426  and  _429
REMARK  175  A    between atoms: _432  and  _434
REMARK  176  A    between atoms: _434  and  _435
REMARK  177  A    between atoms: _434  and  _437
REMARK  178  A    between atoms: _437  and  _438
REMARK  179  A    between atoms: _443  and  _445
REMARK  180  A    between atoms: _445  and  _446
REMARK  181  A    between atoms: _445  and  _448
REMARK  182  A    between atoms: _448  and  _449
REMARK  183  A    between atoms: _452  and  _454
REMARK  184  A    between atoms: _454  and  _455
REMARK  185  A    between atoms: _454  and  _457
REMARK  186  A    between atoms: _457  and  _458
REMARK  187  A    between atoms: _461  and  _463
REMARK  188  A    between atoms: _463  and  _464
REMARK                            x       y       z     vdW  Elec       q    Type
REMARK                         _______ _______ _______ _____ _____    ______ ____
ROOT
ATOM      1  O   HOH     1       0.567  27.967   8.795  0.00  0.00    +0.000 OA
ENDROOT
TORSDOF 0
REMARK  Name = ../refined-set-2016/1a30/1a30_pocket.pdb
REMARK  188 active torsions:
REMARK  status: ('A' for Active; 'I' for Inactive)
REMARK    1  A    between atoms: _1  and  _3
REMARK    2  A    between atoms: _3  and  _4
REMARK    3  A    between atoms: _3  and  _6
REMARK    4  A    between atoms: _6  and  _7
REMARK    5  A    between atoms: _10  and  _12
REMARK    6  A    between atoms: _12  and  _13
REMARK    7  A    between atoms: _12  and  _15
REMARK    8  A    between atoms: _15  and  _16
REMARK    9  A    between atoms: _19  and  _21
REMARK   10  A    between atoms: _21  and  _22
REMARK   11  A    between atoms: _21  and  _24
REMARK   12  A    between atoms: _24  and  _25
REMARK   13  A    between atoms: _28  and  _30
REMARK   14  A    between atoms: _30  and  _31
REMARK   15  A    between atoms: _30  and  _33
REMARK   16  A    between atoms: _33  and  _34
REMARK   17  A    between atoms: _37  and  _39
REMARK   18  A    between atoms: _39  and  _40
REMARK   19  A    between atoms: _42  and  _44
REMARK   20  A    between atoms: _44  and  _45
REMARK   21  A    between atoms: _48  and  _50
REMARK   22  A    between atoms: _50  and  _51
REMARK   23  A    between atoms: _50  and  _53
REMARK   24  A    between atoms: _53  and  _54
REMARK   25  A    between atoms: _57  and  _59
REMARK   26  A    between atoms: _59  and  _60
REMARK   27  A    between atoms: _59  and  _62
REMARK   28  A    between atoms: _62  and  _63
REMARK   29  A    between atoms: _66  and  _68
REMARK   30  A    between atoms: _68  and  _69
REMARK   31  A    between atoms: _68  and  _71
REMARK   32  A    between atoms: _71  and  _72
REMARK   33  A    between atoms: _75  and  _77
REMARK   34  A    between atoms: _77  and  _78
REMARK   35  A    between atoms: _77  and  _80
REMARK   36  A    between atoms: _83  and  _85
REMARK   37  A    between atoms: _85  and  _86
REMARK   38  A    between atoms: _85  and  _88
REMARK   39  A    between atoms: _88  and  _89
REMARK   40  A    between atoms: _89  and  _90
REMARK   41  A    between atoms: _90  and  _91
REMARK   42  A    between atoms: _91  and  _92
REMARK   43  A    between atoms: _96  and  _98
REMARK   44  A    between atoms: _98  and  _99
REMARK   45  A    between atoms: _98  and  _101
REMARK   46  A    between atoms: _101  and  _102
REMARK   47  A    between atoms: _102  and  _103
REMARK   48  A    between atoms: _105  and  _107
REMARK   49  A    between atoms: _107  and  _108
REMARK   50  A    between atoms: _107  and  _110
REMARK   51  A    between atoms: _110  and  _111
REMARK   52  A    between atoms: _114  and  _116
REMARK   53  A    between atoms: _116  and  _117
REMARK   54  A    between atoms: _119  and  _121
REMARK   55  A    between atoms: _121  and  _122
REMARK   56  A    between atoms: _124  and  _126
REMARK   57  A    between atoms: _126  and  _127
REMARK   58  A    between atoms: _126  and  _129
REMARK   59  A    between atoms: _129  and  _130
REMARK   60  A    between atoms: _133  and  _135
REMARK   61  A    between atoms: _135  and  _136
REMARK   62  A    between atoms: _138  and  _140
REMARK   63  A    between atoms: _140  and  _141
REMARK   64  A    between atoms: _143  and  _145
REMARK   65  A    between atoms: _145  and  _146
REMARK   66  A    between atoms: _145  and  _148
REMARK   67  A    between atoms: _148  and  _149
REMARK   68  A    between atoms: _155  and  _157
REMARK   69  A    between atoms: _157  and  _158
REMARK   70  A    between atoms: _157  and  _160
REMARK   71  A    between atoms: _160  and  _161
REMARK   72  A    between atoms: _164  and  _166
REMARK   73  A    between atoms: _166  and  _167
REMARK   74  A    between atoms: _166  and  _169
REMARK   75  A    between atoms: _172  and  _174
REMARK   76  A    between atoms: _174  and  _175
REMARK   77  A    between atoms: _174  and  _177
REMARK   78  A    between atoms: _177  and  _178
REMARK   79  A    between atoms: _181  and  _183
REMARK   80  A    between atoms: _183  and  _184
REMARK   81  A    between atoms: _183  and  _186
REMARK   82  A    between atoms: _186  and  _187
REMARK   83  A    between atoms: _191  and  _192
REMARK   84  A    between atoms: _197  and  _199
REMARK   85  A    between atoms: _199  and  _200
REMARK   86  A    between atoms: _199  and  _202
REMARK   87  A    between atoms: _202  and  _203
REMARK   88  A    between atoms: _206  and  _208
REMARK   89  A    between atoms: _208  and  _209
REMARK   90  A    between atoms: _208  and  _211
REMARK   91  A    between atoms: _211  and  _212
REMARK   92  A    between atoms: _215  and  _217
REMARK   93  A    between atoms: _217  and  _218
REMARK   94  A    between atoms: _220  and  _222
REMARK   95  A    between atoms: _222  and  _223
REMARK   96  A    between atoms: _222  and  _225
REMARK   97  A    between atoms: _225  and  _226
REMARK   98  A    between atoms: _226  and  _227
REMARK   99  A    between atoms: _227  and  _228
REMARK  100  A    between atoms: _237  and  _239
REMARK  101  A    between atoms: _239  and  _240
REMARK  102  A    between atoms: _239  and  _242
REMARK  103  A    between atoms: _242  and  _243
REMARK  104  A    between atoms: _248  and  _250
REMARK  105  A    between atoms: _250  and  _251
REMARK  106  A    between atoms: _250  and  _253
REMARK  107  A    between atoms: _253  and  _254
REMARK  108  A    between atoms: _254  and  _255
REMARK  109  A    between atoms: _255  and  _256
REMARK  110  A    between atoms: _266  and  _267
REMARK  111  A    between atoms: _272  and  _274
REMARK  112  A    between atoms: _274  and  _275
REMARK  113  A    between atoms: _274  and  _277
REMARK  114  A    between atoms: _277  and  _278
REMARK  115  A    between atoms: _281  and  _283
REMARK  116  A    between atoms: _283  and  _284
REMARK  117  A    between atoms: _283  and  _286
REMARK  118  A    between atoms: _286  and  _287
REMARK  119  A    between atoms: _290  and  _292
REMARK  120  A    between atoms: _292  and  _293
REMARK  121  A    between atoms: _292  and  _295
REMARK  122  A    between atoms: _295  and  _296
REMARK  123  A    between atoms: _299  and  _301
REMARK  124  A    between atoms: _301  and  _302
REMARK  125  A    between atoms: _301  and  _304
REMARK  126  A    between atoms: _304  and  _305
REMARK  127  A    between atoms: _308  and  _310
REMARK  128  A    between atoms: _310  and  _311
REMARK  129  A    between atoms: _310  and  _313
REMARK  130  A    between atoms: _313  and  _314
REMARK  131  A    between atoms: _317  and  _319
REMARK  132  A    between atoms: _319  and  _320
REMARK  133  A    between atoms: _322  and  _324
REMARK  134  A    between atoms: _324  and  _325
REMARK  135  A    between atoms: _328  and  _330
REMARK  136  A    between atoms: _330  and  _331
REMARK  137  A    between atoms: _330  and  _333
REMARK  138  A    between atoms: _333  and  _334
REMARK  139  A    between atoms: _337  and  _339
REMARK  140  A    between atoms: _339  and  _340
REMARK  141  A    between atoms: _339  and  _342
REMARK  142  A    between atoms: _342  and  _343
REMARK  143  A    between atoms: _346  and  _348
REMARK  144  A    between atoms: _348  and  _349
REMARK  145  A    between atoms: _348  and  _351
REMARK  146  A    between atoms: _354  and  _356
REMARK  147  A    between atoms: _356  and  _357
REMARK  148  A    between atoms: _356  and  _359
REMARK  149  A    between atoms: _359  and  _360
REMARK  150  A    between atoms: _363  and  _365
REMARK  151  A    between atoms: _365  and  _366
REMARK  152  A    between atoms: _368  and  _370
REMARK  153  A    between atoms: _370  and  _371
REMARK  154  A    between atoms: _373  and  _375
REMARK  155  A    between atoms: _375  and  _376
REMARK  156  A    between atoms: _375  and  _378
REMARK  157  A    between atoms: _378  and  _379
REMARK  158  A    between atoms: _382  and  _384
REMARK  159  A    between atoms: _384  and  _385
REMARK  160  A    between atoms: _387  and  _389
REMARK  161  A    between atoms: _389  and  _390
REMARK  162  A    between atoms: _392  and  _394
REMARK  163  A    between atoms: _394  and  _395
REMARK  164  A    between atoms: _394  and  _397
REMARK  165  A    between atoms: _397  and  _398
REMARK  166  A    between atoms: _402  and  _403
REMARK  167  A    between atoms: _408  and  _410
REMARK  168  A    between atoms: _410  and  _411
REMARK  169  A    between atoms: _410  and  _413
REMARK  170  A    between atoms: _413  and  _414
REMARK  171  A    between atoms: _418  and  _419
REMARK  172  A    between atoms: _424  and  _426
REMARK  173  A    between atoms: _426  and  _427
REMARK  174  A    between atoms: _426  and  _429
REMARK  175  A    between atoms: _432  and  _434
REMARK  176  A    between atoms: _434  and  _435
REMARK  177  A    between atoms: _434  and  _437
REMARK  178  A    between atoms: _437  and  _438
REMARK  179  A    between atoms: _443  and  _445
REMARK  180  A    between atoms: _445  and  _446
REMARK  181  A    between atoms: _445  and  _448
REMARK  182  A    between atoms: _448  and  _449
REMARK  183  A    between atoms: _452  and  _454
REMARK  184  A    between atoms: _454  and  _455
REMARK  185  A    between atoms: _454  and  _457
REMARK  186  A    between atoms: _457  and  _458
REMARK  187  A    between atoms: _461  and  _463
REMARK  188  A    between atoms: _463  and  _464
REMARK                            x       y       z     vdW  Elec       q    Type
REMARK                         _______ _______ _______ _____ _____    ______ ____
ROOT
ATOM      1  O   HOH     1       4.473  33.794   0.680  0.00  0.00    +0.000 OA
ENDROOT
TORSDOF 0
REMARK  Name = ../refined-set-2016/1a30/1a30_pocket.pdb
REMARK  188 active torsions:
REMARK  status: ('A' for Active; 'I' for Inactive)
REMARK    1  A    between atoms: _1  and  _3
REMARK    2  A    between atoms: _3  and  _4
REMARK    3  A    between atoms: _3  and  _6
REMARK    4  A    between atoms: _6  and  _7
REMARK    5  A    between atoms: _10  and  _12
REMARK    6  A    between atoms: _12  and  _13
REMARK    7  A    between atoms: _12  and  _15
REMARK    8  A    between atoms: _15  and  _16
REMARK    9  A    between atoms: _19  and  _21
REMARK   10  A    between atoms: _21  and  _22
REMARK   11  A    between atoms: _21  and  _24
REMARK   12  A    between atoms: _24  and  _25
REMARK   13  A    between atoms: _28  and  _30
REMARK   14  A    between atoms: _30  and  _31
REMARK   15  A    between atoms: _30  and  _33
REMARK   16  A    between atoms: _33  and  _34
REMARK   17  A    between atoms: _37  and  _39
REMARK   18  A    between atoms: _39  and  _40
REMARK   19  A    between atoms: _42  and  _44
REMARK   20  A    between atoms: _44  and  _45
REMARK   21  A    between atoms: _48  and  _50
REMARK   22  A    between atoms: _50  and  _51
REMARK   23  A    between atoms: _50  and  _53
REMARK   24  A    between atoms: _53  and  _54
REMARK   25  A    between atoms: _57  and  _59
REMARK   26  A    between atoms: _59  and  _60
REMARK   27  A    between atoms: _59  and  _62
REMARK   28  A    between atoms: _62  and  _63
REMARK   29  A    between atoms: _66  and  _68
REMARK   30  A    between atoms: _68  and  _69
REMARK   31  A    between atoms: _68  and  _71
REMARK   32  A    between atoms: _71  and  _72
REMARK   33  A    between atoms: _75  and  _77
REMARK   34  A    between atoms: _77  and  _78
REMARK   35  A    between atoms: _77  and  _80
REMARK   36  A    between atoms: _83  and  _85
REMARK   37  A    between atoms: _85  and  _86
REMARK   38  A    between atoms: _85  and  _88
REMARK   39  A    between atoms: _88  and  _89
REMARK   40  A    between atoms: _89  and  _90
REMARK   41  A    between atoms: _90  and  _91
REMARK   42  A    between atoms: _91  and  _92
REMARK   43  A    between atoms: _96  and  _98
REMARK   44  A    between atoms: _98  and  _99
REMARK   45  A    between atoms: _98  and  _101
REMARK   46  A    between atoms: _101  and  _102
REMARK   47  A    between atoms: _102  and  _103
REMARK   48  A    between atoms: _105  and  _107
REMARK   49  A    between atoms: _107  and  _108
REMARK   50  A    between atoms: _107  and  _110
REMARK   51  A    between atoms: _110  and  _111
REMARK   52  A    between atoms: _114  and  _116
REMARK   53  A    between atoms: _116  and  _117
REMARK   54  A    between atoms: _119  and  _121
REMARK   55  A    between atoms: _121  and  _122
REMARK   56  A    between atoms: _124  and  _126
REMARK   57  A    between atoms: _126  and  _127
REMARK   58  A    between atoms: _126  and  _129
REMARK   59  A    between atoms: _129  and  _130
REMARK   60  A    between atoms: _133  and  _135
REMARK   61  A    between atoms: _135  and  _136
REMARK   62  A    between atoms: _138  and  _140
REMARK   63  A    between atoms: _140  and  _141
REMARK   64  A    between atoms: _143  and  _145
REMARK   65  A    between atoms: _145  and  _146
REMARK   66  A    between atoms: _145  and  _148
REMARK   67  A    between atoms: _148  and  _149
REMARK   68  A    between atoms: _155  and  _157
REMARK   69  A    between atoms: _157  and  _158
REMARK   70  A    between atoms: _157  and  _160
REMARK   71  A    between atoms: _160  and  _161
REMARK   72  A    between atoms: _164  and  _166
REMARK   73  A    between atoms: _166  and  _167
REMARK   74  A    between atoms: _166  and  _169
REMARK   75  A    between atoms: _172  and  _174
REMARK   76  A    between atoms: _174  and  _175
REMARK   77  A    between atoms: _174  and  _177
REMARK   78  A    between atoms: _177  and  _178
REMARK   79  A    between atoms: _181  and  _183
REMARK   80  A    between atoms: _183  and  _184
REMARK   81  A    between atoms: _183  and  _186
REMARK   82  A    between atoms: _186  and  _187
REMARK   83  A    between atoms: _191  and  _192
REMARK   84  A    between atoms: _197  and  _199
REMARK   85  A    between atoms: _199  and  _200
REMARK   86  A    between atoms: _199  and  _202
REMARK   87  A    between atoms: _202  and  _203
REMARK   88  A    between atoms: _206  and  _208
REMARK   89  A    between atoms: _208  and  _209
REMARK   90  A    between atoms: _208  and  _211
REMARK   91  A    between atoms: _211  and  _212
REMARK   92  A    between atoms: _215  and  _217
REMARK   93  A    between atoms: _217  and  _218
REMARK   94  A    between atoms: _220  and  _222
REMARK   95  A    between atoms: _222  and  _223
REMARK   96  A    between atoms: _222  and  _225
REMARK   97  A    between atoms: _225  and  _226
REMARK   98  A    between atoms: _226  and  _227
REMARK   99  A    between atoms: _227  and  _228
REMARK  100  A    between atoms: _237  and  _239
REMARK  101  A    between atoms: _239  and  _240
REMARK  102  A    between atoms: _239  and  _242
REMARK  103  A    between atoms: _242  and  _243
REMARK  104  A    between atoms: _248  and  _250
REMARK  105  A    between atoms: _250  and  _251
REMARK  106  A    between atoms: _250  and  _253
REMARK  107  A    between atoms: _253  and  _254
REMARK  108  A    between atoms: _254  and  _255
REMARK  109  A    between atoms: _255  and  _256
REMARK  110  A    between atoms: _266  and  _267
REMARK  111  A    between atoms: _272  and  _274
REMARK  112  A    between atoms: _274  and  _275
REMARK  113  A    between atoms: _274  and  _277
REMARK  114  A    between atoms: _277  and  _278
REMARK  115  A    between atoms: _281  and  _283
REMARK  116  A    between atoms: _283  and  _284
REMARK  117  A    between atoms: _283  and  _286
REMARK  118  A    between atoms: _286  and  _287
REMARK  119  A    between atoms: _290  and  _292
REMARK  120  A    between atoms: _292  and  _293
REMARK  121  A    between atoms: _292  and  _295
REMARK  122  A    between atoms: _295  and  _296
REMARK  123  A    between atoms: _299  and  _301
REMARK  124  A    between atoms: _301  and  _302
REMARK  125  A    between atoms: _301  and  _304
REMARK  126  A    between atoms: _304  and  _305
REMARK  127  A    between atoms: _308  and  _310
REMARK  128  A    between atoms: _310  and  _311
REMARK  129  A    between atoms: _310  and  _313
REMARK  130  A    between atoms: _313  and  _314
REMARK  131  A    between atoms: _317  and  _319
REMARK  132  A    between atoms: _319  and  _320
REMARK  133  A    between atoms: _322  and  _324
REMARK  134  A    between atoms: _324  and  _325
REMARK  135  A    between atoms: _328  and  _330
REMARK  136  A    between atoms: _330  and  _331
REMARK  137  A    between atoms: _330  and  _333
REMARK  138  A    between atoms: _333  and  _334
REMARK  139  A    between atoms: _337  and  _339
REMARK  140  A    between atoms: _339  and  _340
REMARK  141  A    between atoms: _339  and  _342
REMARK  142  A    between atoms: _342  and  _343
REMARK  143  A    between atoms: _346  and  _348
REMARK  144  A    between atoms: _348  and  _349
REMARK  145  A    between atoms: _348  and  _351
REMARK  146  A    between atoms: _354  and  _356
REMARK  147  A    between atoms: _356  and  _357
REMARK  148  A    between atoms: _356  and  _359
REMARK  149  A    between atoms: _359  and  _360
REMARK  150  A    between atoms: _363  and  _365
REMARK  151  A    between atoms: _365  and  _366
REMARK  152  A    between atoms: _368  and  _370
REMARK  153  A    between atoms: _370  and  _371
REMARK  154  A    between atoms: _373  and  _375
REMARK  155  A    between atoms: _375  and  _376
REMARK  156  A    between atoms: _375  and  _378
REMARK  157  A    between atoms: _378  and  _379
REMARK  158  A    between atoms: _382  and  _384
REMARK  159  A    between atoms: _384  and  _385
REMARK  160  A    between atoms: _387  and  _389
REMARK  161  A    between atoms: _389  and  _390
REMARK  162  A    between atoms: _392  and  _394
REMARK  163  A    between atoms: _394  and  _395
REMARK  164  A    between atoms: _394  and  _397
REMARK  165  A    between atoms: _397  and  _398
REMARK  166  A    between atoms: _402  and  _403
REMARK  167  A    between atoms: _408  and  _410
REMARK  168  A    between atoms: _410  and  _411
REMARK  169  A    between atoms: _410  and  _413
REMARK  170  A    between atoms: _413  and  _414
REMARK  171  A    between atoms: _418  and  _419
REMARK  172  A    between atoms: _424  and  _426
REMARK  173  A    between atoms: _426  and  _427
REMARK  174  A    between atoms: _426  and  _429
REMARK  175  A    between atoms: _432  and  _434
REMARK  176  A    between atoms: _434  and  _435
REMARK  177  A    between atoms: _434  and  _437
REMARK  178  A    between atoms: _437  and  _438
REMARK  179  A    between atoms: _443  and  _445
REMARK  180  A    between atoms: _445  and  _446
REMARK  181  A    between atoms: _445  and  _448
REMARK  182  A    between atoms: _448  and  _449
REMARK  183  A    between atoms: _452  and  _454
REMARK  184  A    between atoms: _454  and  _455
REMARK  185  A    between atoms: _454  and  _457
REMARK  186  A    between atoms: _457  and  _458
REMARK  187  A    between atoms: _461  and  _463
REMARK  188  A    between atoms: _463  and  _464
REMARK                            x       y       z     vdW  Elec       q    Type
REMARK                         _______ _______ _______ _____ _____    ______ ____
ROOT
ATOM      1  O   HOH     1       4.676  27.789  -3.476  0.00  0.00    +0.000 OA
ENDROOT
TORSDOF 0
REMARK  Name = ../refined-set-2016/1a30/1a30_pocket.pdb
REMARK  188 active torsions:
REMARK  status: ('A' for Active; 'I' for Inactive)
REMARK    1  A    between atoms: _1  and  _3
REMARK    2  A    between atoms: _3  and  _4
REMARK    3  A    between atoms: _3  and  _6
REMARK    4  A    between atoms: _6  and  _7
REMARK    5  A    between atoms: _10  and  _12
REMARK    6  A    between atoms: _12  and  _13
REMARK    7  A    between atoms: _12  and  _15
REMARK    8  A    between atoms: _15  and  _16
REMARK    9  A    between atoms: _19  and  _21
REMARK   10  A    between atoms: _21  and  _22
REMARK   11  A    between atoms: _21  and  _24
REMARK   12  A    between atoms: _24  and  _25
REMARK   13  A    between atoms: _28  and  _30
REMARK   14  A    between atoms: _30  and  _31
REMARK   15  A    between atoms: _30  and  _33
REMARK   16  A    between atoms: _33  and  _34
REMARK   17  A    between atoms: _37  and  _39
REMARK   18  A    between atoms: _39  and  _40
REMARK   19  A    between atoms: _42  and  _44
REMARK   20  A    between atoms: _44  and  _45
REMARK   21  A    between atoms: _48  and  _50
REMARK   22  A    between atoms: _50  and  _51
REMARK   23  A    between atoms: _50  and  _53
REMARK   24  A    between atoms: _53  and  _54
REMARK   25  A    between atoms: _57  and  _59
REMARK   26  A    between atoms: _59  and  _60
REMARK   27  A    between atoms: _59  and  _62
REMARK   28  A    between atoms: _62  and  _63
REMARK   29  A    between atoms: _66  and  _68
REMARK   30  A    between atoms: _68  and  _69
REMARK   31  A    between atoms: _68  and  _71
REMARK   32  A    between atoms: _71  and  _72
REMARK   33  A    between atoms: _75  and  _77
REMARK   34  A    between atoms: _77  and  _78
REMARK   35  A    between atoms: _77  and  _80
REMARK   36  A    between atoms: _83  and  _85
REMARK   37  A    between atoms: _85  and  _86
REMARK   38  A    between atoms: _85  and  _88
REMARK   39  A    between atoms: _88  and  _89
REMARK   40  A    between atoms: _89  and  _90
REMARK   41  A    between atoms: _90  and  _91
REMARK   42  A    between atoms: _91  and  _92
REMARK   43  A    between atoms: _96  and  _98
REMARK   44  A    between atoms: _98  and  _99
REMARK   45  A    between atoms: _98  and  _101
REMARK   46  A    between atoms: _101  and  _102
REMARK   47  A    between atoms: _102  and  _103
REMARK   48  A    between atoms: _105  and  _107
REMARK   49  A    between atoms: _107  and  _108
REMARK   50  A    between atoms: _107  and  _110
REMARK   51  A    between atoms: _110  and  _111
REMARK   52  A    between atoms: _114  and  _116
REMARK   53  A    between atoms: _116  and  _117
REMARK   54  A    between atoms: _119  and  _121
REMARK   55  A    between atoms: _121  and  _122
REMARK   56  A    between atoms: _124  and  _126
REMARK   57  A    between atoms: _126  and  _127
REMARK   58  A    between atoms: _126  and  _129
REMARK   59  A    between atoms: _129  and  _130
REMARK   60  A    between atoms: _133  and  _135
REMARK   61  A    between atoms: _135  and  _136
REMARK   62  A    between atoms: _138  and  _140
REMARK   63  A    between atoms: _140  and  _141
REMARK   64  A    between atoms: _143  and  _145
REMARK   65  A    between atoms: _145  and  _146
REMARK   66  A    between atoms: _145  and  _148
REMARK   67  A    between atoms: _148  and  _149
REMARK   68  A    between atoms: _155  and  _157
REMARK   69  A    between atoms: _157  and  _158
REMARK   70  A    between atoms: _157  and  _160
REMARK   71  A    between atoms: _160  and  _161
REMARK   72  A    between atoms: _164  and  _166
REMARK   73  A    between atoms: _166  and  _167
REMARK   74  A    between atoms: _166  and  _169
REMARK   75  A    between atoms: _172  and  _174
REMARK   76  A    between atoms: _174  and  _175
REMARK   77  A    between atoms: _174  and  _177
REMARK   78  A    between atoms: _177  and  _178
REMARK   79  A    between atoms: _181  and  _183
REMARK   80  A    between atoms: _183  and  _184
REMARK   81  A    between atoms: _183  and  _186
REMARK   82  A    between atoms: _186  and  _187
REMARK   83  A    between atoms: _191  and  _192
REMARK   84  A    between atoms: _197  and  _199
REMARK   85  A    between atoms: _199  and  _200
REMARK   86  A    between atoms: _199  and  _202
REMARK   87  A    between atoms: _202  and  _203
REMARK   88  A    between atoms: _206  and  _208
REMARK   89  A    between atoms: _208  and  _209
REMARK   90  A    between atoms: _208  and  _211
REMARK   91  A    between atoms: _211  and  _212
REMARK   92  A    between atoms: _215  and  _217
REMARK   93  A    between atoms: _217  and  _218
REMARK   94  A    between atoms: _220  and  _222
REMARK   95  A    between atoms: _222  and  _223
REMARK   96  A    between atoms: _222  and  _225
REMARK   97  A    between atoms: _225  and  _226
REMARK   98  A    between atoms: _226  and  _227
REMARK   99  A    between atoms: _227  and  _228
REMARK  100  A    between atoms: _237  and  _239
REMARK  101  A    between atoms: _239  and  _240
REMARK  102  A    between atoms: _239  and  _242
REMARK  103  A    between atoms: _242  and  _243
REMARK  104  A    between atoms: _248  and  _250
REMARK  105  A    between atoms: _250  and  _251
REMARK  106  A    between atoms: _250  and  _253
REMARK  107  A    between atoms: _253  and  _254
REMARK  108  A    between atoms: _254  and  _255
REMARK  109  A    between atoms: _255  and  _256
REMARK  110  A    between atoms: _266  and  _267
REMARK  111  A    between atoms: _272  and  _274
REMARK  112  A    between atoms: _274  and  _275
REMARK  113  A    between atoms: _274  and  _277
REMARK  114  A    between atoms: _277  and  _278
REMARK  115  A    between atoms: _281  and  _283
REMARK  116  A    between atoms: _283  and  _284
REMARK  117  A    between atoms: _283  and  _286
REMARK  118  A    between atoms: _286  and  _287
REMARK  119  A    between atoms: _290  and  _292
REMARK  120  A    between atoms: _292  and  _293
REMARK  121  A    between atoms: _292  and  _295
REMARK  122  A    between atoms: _295  and  _296
REMARK  123  A    between atoms: _299  and  _301
REMARK  124  A    between atoms: _301  and  _302
REMARK  125  A    between atoms: _301  and  _304
REMARK  126  A    between atoms: _304  and  _305
REMARK  127  A    between atoms: _308  and  _310
REMARK  128  A    between atoms: _310  and  _311
REMARK  129  A    between atoms: _310  and  _313
REMARK  130  A    between atoms: _313  and  _314
REMARK  131  A    between atoms: _317  and  _319
REMARK  132  A    between atoms: _319  and  _320
REMARK  133  A    between atoms: _322  and  _324
REMARK  134  A    between atoms: _324  and  _325
REMARK  135  A    between atoms: _328  and  _330
REMARK  136  A    between atoms: _330  and  _331
REMARK  137  A    between atoms: _330  and  _333
REMARK  138  A    between atoms: _333  and  _334
REMARK  139  A    between atoms: _337  and  _339
REMARK  140  A    between atoms: _339  and  _340
REMARK  141  A    between atoms: _339  and  _342
REMARK  142  A    between atoms: _342  and  _343
REMARK  143  A    between atoms: _346  and  _348
REMARK  144  A    between atoms: _348  and  _349
REMARK  145  A    between atoms: _348  and  _351
REMARK  146  A    between atoms: _354  and  _356
REMARK  147  A    between atoms: _356  and  _357
REMARK  148  A    between atoms: _356  and  _359
REMARK  149  A    between atoms: _359  and  _360
REMARK  150  A    between atoms: _363  and  _365
REMARK  151  A    between atoms: _365  and  _366
REMARK  152  A    between atoms: _368  and  _370
REMARK  153  A    between atoms: _370  and  _371
REMARK  154  A    between atoms: _373  and  _375
REMARK  155  A    between atoms: _375  and  _376
REMARK  156  A    between atoms: _375  and  _378
REMARK  157  A    between atoms: _378  and  _379
REMARK  158  A    between atoms: _382  and  _384
REMARK  159  A    between atoms: _384  and  _385
REMARK  160  A    between atoms: _387  and  _389
REMARK  161  A    between atoms: _389  and  _390
REMARK  162  A    between atoms: _392  and  _394
REMARK  163  A    between atoms: _394  and  _395
REMARK  164  A    between atoms: _394  and  _397
REMARK  165  A    between atoms: _397  and  _398
REMARK  166  A    between atoms: _402  and  _403
REMARK  167  A    between atoms: _408  and  _410
REMARK  168  A    between atoms: _410  and  _411
REMARK  169  A    between atoms: _410  and  _413
REMARK  170  A    between atoms: _413  and  _414
REMARK  171  A    between atoms: _418  and  _419
REMARK  172  A    between atoms: _424  and  _426
REMARK  173  A    between atoms: _426  and  _427
REMARK  174  A    between atoms: _426  and  _429
REMARK  175  A    between atoms: _432  and  _434
REMARK  176  A    between atoms: _434  and  _435
REMARK  177  A    between atoms: _434  and  _437
REMARK  178  A    between atoms: _437  and  _438
REMARK  179  A    between atoms: _443  and  _445
REMARK  180  A    between atoms: _445  and  _446
REMARK  181  A    between atoms: _445  and  _448
REMARK  182  A    between atoms: _448  and  _449
REMARK  183  A    between atoms: _452  and  _454
REMARK  184  A    between atoms: _454  and  _455
REMARK  185  A    between atoms: _454  and  _457
REMARK  186  A    between atoms: _457  and  _458
REMARK  187  A    between atoms: _461  and  _463
REMARK  188  A    between atoms: _463  and  _464
REMARK                            x       y       z     vdW  Elec       q    Type
REMARK                         _______ _______ _______ _____ _____    ______ ____
ROOT
ATOM      1  O   HOH     1       5.954  26.085  -5.735  0.00  0.00    +0.000 OA
ENDROOT
TORSDOF 0
REMARK  Name = ../refined-set-2016/1a30/1a30_pocket.pdb
REMARK  188 active torsions:
REMARK  status: ('A' for Active; 'I' for Inactive)
REMARK    1  A    between atoms: _1  and  _3
REMARK    2  A    between atoms: _3  and  _4
REMARK    3  A    between atoms: _3  and  _6
REMARK    4  A    between atoms: _6  and  _7
REMARK    5  A    between atoms: _10  and  _12
REMARK    6  A    between atoms: _12  and  _13
REMARK    7  A    between atoms: _12  and  _15
REMARK    8  A    between atoms: _15  and  _16
REMARK    9  A    between atoms: _19  and  _21
REMARK   10  A    between atoms: _21  and  _22
REMARK   11  A    between atoms: _21  and  _24
REMARK   12  A    between atoms: _24  and  _25
REMARK   13  A    between atoms: _28  and  _30
REMARK   14  A    between atoms: _30  and  _31
REMARK   15  A    between atoms: _30  and  _33
REMARK   16  A    between atoms: _33  and  _34
REMARK   17  A    between atoms: _37  and  _39
REMARK   18  A    between atoms: _39  and  _40
REMARK   19  A    between atoms: _42  and  _44
REMARK   20  A    between atoms: _44  and  _45
REMARK   21  A    between atoms: _48  and  _50
REMARK   22  A    between atoms: _50  and  _51
REMARK   23  A    between atoms: _50  and  _53
REMARK   24  A    between atoms: _53  and  _54
REMARK   25  A    between atoms: _57  and  _59
REMARK   26  A    between atoms: _59  and  _60
REMARK   27  A    between atoms: _59  and  _62
REMARK   28  A    between atoms: _62  and  _63
REMARK   29  A    between atoms: _66  and  _68
REMARK   30  A    between atoms: _68  and  _69
REMARK   31  A    between atoms: _68  and  _71
REMARK   32  A    between atoms: _71  and  _72
REMARK   33  A    between atoms: _75  and  _77
REMARK   34  A    between atoms: _77  and  _78
REMARK   35  A    between atoms: _77  and  _80
REMARK   36  A    between atoms: _83  and  _85
REMARK   37  A    between atoms: _85  and  _86
REMARK   38  A    between atoms: _85  and  _88
REMARK   39  A    between atoms: _88  and  _89
REMARK   40  A    between atoms: _89  and  _90
REMARK   41  A    between atoms: _90  and  _91
REMARK   42  A    between atoms: _91  and  _92
REMARK   43  A    between atoms: _96  and  _98
REMARK   44  A    between atoms: _98  and  _99
REMARK   45  A    between atoms: _98  and  _101
REMARK   46  A    between atoms: _101  and  _102
REMARK   47  A    between atoms: _102  and  _103
REMARK   48  A    between atoms: _105  and  _107
REMARK   49  A    between atoms: _107  and  _108
REMARK   50  A    between atoms: _107  and  _110
REMARK   51  A    between atoms: _110  and  _111
REMARK   52  A    between atoms: _114  and  _116
REMARK   53  A    between atoms: _116  and  _117
REMARK   54  A    between atoms: _119  and  _121
REMARK   55  A    between atoms: _121  and  _122
REMARK   56  A    between atoms: _124  and  _126
REMARK   57  A    between atoms: _126  and  _127
REMARK   58  A    between atoms: _126  and  _129
REMARK   59  A    between atoms: _129  and  _130
REMARK   60  A    between atoms: _133  and  _135
REMARK   61  A    between atoms: _135  and  _136
REMARK   62  A    between atoms: _138  and  _140
REMARK   63  A    between atoms: _140  and  _141
REMARK   64  A    between atoms: _143  and  _145
REMARK   65  A    between atoms: _145  and  _146
REMARK   66  A    between atoms: _145  and  _148
REMARK   67  A    between atoms: _148  and  _149
REMARK   68  A    between atoms: _155  and  _157
REMARK   69  A    between atoms: _157  and  _158
REMARK   70  A    between atoms: _157  and  _160
REMARK   71  A    between atoms: _160  and  _161
REMARK   72  A    between atoms: _164  and  _166
REMARK   73  A    between atoms: _166  and  _167
REMARK   74  A    between atoms: _166  and  _169
REMARK   75  A    between atoms: _172  and  _174
REMARK   76  A    between atoms: _174  and  _175
REMARK   77  A    between atoms: _174  and  _177
REMARK   78  A    between atoms: _177  and  _178
REMARK   79  A    between atoms: _181  and  _183
REMARK   80  A    between atoms: _183  and  _184
REMARK   81  A    between atoms: _183  and  _186
REMARK   82  A    between atoms: _186  and  _187
REMARK   83  A    between atoms: _191  and  _192
REMARK   84  A    between atoms: _197  and  _199
REMARK   85  A    between atoms: _199  and  _200
REMARK   86  A    between atoms: _199  and  _202
REMARK   87  A    between atoms: _202  and  _203
REMARK   88  A    between atoms: _206  and  _208
REMARK   89  A    between atoms: _208  and  _209
REMARK   90  A    between atoms: _208  and  _211
REMARK   91  A    between atoms: _211  and  _212
REMARK   92  A    between atoms: _215  and  _217
REMARK   93  A    between atoms: _217  and  _218
REMARK   94  A    between atoms: _220  and  _222
REMARK   95  A    between atoms: _222  and  _223
REMARK   96  A    between atoms: _222  and  _225
REMARK   97  A    between atoms: _225  and  _226
REMARK   98  A    between atoms: _226  and  _227
REMARK   99  A    between atoms: _227  and  _228
REMARK  100  A    between atoms: _237  and  _239
REMARK  101  A    between atoms: _239  and  _240
REMARK  102  A    between atoms: _239  and  _242
REMARK  103  A    between atoms: _242  and  _243
REMARK  104  A    between atoms: _248  and  _250
REMARK  105  A    between atoms: _250  and  _251
REMARK  106  A    between atoms: _250  and  _253
REMARK  107  A    between atoms: _253  and  _254
REMARK  108  A    between atoms: _254  and  _255
REMARK  109  A    between atoms: _255  and  _256
REMARK  110  A    between atoms: _266  and  _267
REMARK  111  A    between atoms: _272  and  _274
REMARK  112  A    between atoms: _274  and  _275
REMARK  113  A    between atoms: _274  and  _277
REMARK  114  A    between atoms: _277  and  _278
REMARK  115  A    between atoms: _281  and  _283
REMARK  116  A    between atoms: _283  and  _284
REMARK  117  A    between atoms: _283  and  _286
REMARK  118  A    between atoms: _286  and  _287
REMARK  119  A    between atoms: _290  and  _292
REMARK  120  A    between atoms: _292  and  _293
REMARK  121  A    between atoms: _292  and  _295
REMARK  122  A    between atoms: _295  and  _296
REMARK  123  A    between atoms: _299  and  _301
REMARK  124  A    between atoms: _301  and  _302
REMARK  125  A    between atoms: _301  and  _304
REMARK  126  A    between atoms: _304  and  _305
REMARK  127  A    between atoms: _308  and  _310
REMARK  128  A    between atoms: _310  and  _311
REMARK  129  A    between atoms: _310  and  _313
REMARK  130  A    between atoms: _313  and  _314
REMARK  131  A    between atoms: _317  and  _319
REMARK  132  A    between atoms: _319  and  _320
REMARK  133  A    between atoms: _322  and  _324
REMARK  134  A    between atoms: _324  and  _325
REMARK  135  A    between atoms: _328  and  _330
REMARK  136  A    between atoms: _330  and  _331
REMARK  137  A    between atoms: _330  and  _333
REMARK  138  A    between atoms: _333  and  _334
REMARK  139  A    between atoms: _337  and  _339
REMARK  140  A    between atoms: _339  and  _340
REMARK  141  A    between atoms: _339  and  _342
REMARK  142  A    between atoms: _342  and  _343
REMARK  143  A    between atoms: _346  and  _348
REMARK  144  A    between atoms: _348  and  _349
REMARK  145  A    between atoms: _348  and  _351
REMARK  146  A    between atoms: _354  and  _356
REMARK  147  A    between atoms: _356  and  _357
REMARK  148  A    between atoms: _356  and  _359
REMARK  149  A    between atoms: _359  and  _360
REMARK  150  A    between atoms: _363  and  _365
REMARK  151  A    between atoms: _365  and  _366
REMARK  152  A    between atoms: _368  and  _370
REMARK  153  A    between atoms: _370  and  _371
REMARK  154  A    between atoms: _373  and  _375
REMARK  155  A    between atoms: _375  and  _376
REMARK  156  A    between atoms: _375  and  _378
REMARK  157  A    between atoms: _378  and  _379
REMARK  158  A    between atoms: _382  and  _384
REMARK  159  A    between atoms: _384  and  _385
REMARK  160  A    between atoms: _387  and  _389
REMARK  161  A    between atoms: _389  and  _390
REMARK  162  A    between atoms: _392  and  _394
REMARK  163  A    between atoms: _394  and  _395
REMARK  164  A    between atoms: _394  and  _397
REMARK  165  A    between atoms: _397  and  _398
REMARK  166  A    between atoms: _402  and  _403
REMARK  167  A    between atoms: _408  and  _410
REMARK  168  A    between atoms: _410  and  _411
REMARK  169  A    between atoms: _410  and  _413
REMARK  170  A    between atoms: _413  and  _414
REMARK  171  A    between atoms: _418  and  _419
REMARK  172  A    between atoms: _424  and  _426
REMARK  173  A    between atoms: _426  and  _427
REMARK  174  A    between atoms: _426  and  _429
REMARK  175  A    between atoms: _432  and  _434
REMARK  176  A    between atoms: _434  and  _435
REMARK  177  A    between atoms: _434  and  _437
REMARK  178  A    between atoms: _437  and  _438
REMARK  179  A    between atoms: _443  and  _445
REMARK  180  A    between atoms: _445  and  _446
REMARK  181  A    between atoms: _445  and  _448
REMARK  182  A    between atoms: _448  and  _449
REMARK  183  A    between atoms: _452  and  _454
REMARK  184  A    between atoms: _454  and  _455
REMARK  185  A    between atoms: _454  and  _457
REMARK  186  A    between atoms: _457  and  _458
REMARK  187  A    between atoms: _461  and  _463
REMARK  188  A    between atoms: _463  and  _464
REMARK                            x       y       z     vdW  Elec       q    Type
REMARK                         _______ _______ _______ _____ _____    ______ ____
ROOT
ATOM      1  O   HOH     1       7.183  23.515  -6.113  0.00  0.00    +0.000 OA
ENDROOT
TORSDOF 0
REMARK  Name = ../refined-set-2016/1a30/1a30_pocket.pdb
REMARK  188 active torsions:
REMARK  status: ('A' for Active; 'I' for Inactive)
REMARK    1  A    between atoms: _1  and  _3
REMARK    2  A    between atoms: _3  and  _4
REMARK    3  A    between atoms: _3  and  _6
REMARK    4  A    between atoms: _6  and  _7
REMARK    5  A    between atoms: _10  and  _12
REMARK    6  A    between atoms: _12  and  _13
REMARK    7  A    between atoms: _12  and  _15
REMARK    8  A    between atoms: _15  and  _16
REMARK    9  A    between atoms: _19  and  _21
REMARK   10  A    between atoms: _21  and  _22
REMARK   11  A    between atoms: _21  and  _24
REMARK   12  A    between atoms: _24  and  _25
REMARK   13  A    between atoms: _28  and  _30
REMARK   14  A    between atoms: _30  and  _31
REMARK   15  A    between atoms: _30  and  _33
REMARK   16  A    between atoms: _33  and  _34
REMARK   17  A    between atoms: _37  and  _39
REMARK   18  A    between atoms: _39  and  _40
REMARK   19  A    between atoms: _42  and  _44
REMARK   20  A    between atoms: _44  and  _45
REMARK   21  A    between atoms: _48  and  _50
REMARK   22  A    between atoms: _50  and  _51
REMARK   23  A    between atoms: _50  and  _53
REMARK   24  A    between atoms: _53  and  _54
REMARK   25  A    between atoms: _57  and  _59
REMARK   26  A    between atoms: _59  and  _60
REMARK   27  A    between atoms: _59  and  _62
REMARK   28  A    between atoms: _62  and  _63
REMARK   29  A    between atoms: _66  and  _68
REMARK   30  A    between atoms: _68  and  _69
REMARK   31  A    between atoms: _68  and  _71
REMARK   32  A    between atoms: _71  and  _72
REMARK   33  A    between atoms: _75  and  _77
REMARK   34  A    between atoms: _77  and  _78
REMARK   35  A    between atoms: _77  and  _80
REMARK   36  A    between atoms: _83  and  _85
REMARK   37  A    between atoms: _85  and  _86
REMARK   38  A    between atoms: _85  and  _88
REMARK   39  A    between atoms: _88  and  _89
REMARK   40  A    between atoms: _89  and  _90
REMARK   41  A    between atoms: _90  and  _91
REMARK   42  A    between atoms: _91  and  _92
REMARK   43  A    between atoms: _96  and  _98
REMARK   44  A    between atoms: _98  and  _99
REMARK   45  A    between atoms: _98  and  _101
REMARK   46  A    between atoms: _101  and  _102
REMARK   47  A    between atoms: _102  and  _103
REMARK   48  A    between atoms: _105  and  _107
REMARK   49  A    between atoms: _107  and  _108
REMARK   50  A    between atoms: _107  and  _110
REMARK   51  A    between atoms: _110  and  _111
REMARK   52  A    between atoms: _114  and  _116
REMARK   53  A    between atoms: _116  and  _117
REMARK   54  A    between atoms: _119  and  _121
REMARK   55  A    between atoms: _121  and  _122
REMARK   56  A    between atoms: _124  and  _126
REMARK   57  A    between atoms: _126  and  _127
REMARK   58  A    between atoms: _126  and  _129
REMARK   59  A    between atoms: _129  and  _130
REMARK   60  A    between atoms: _133  and  _135
REMARK   61  A    between atoms: _135  and  _136
REMARK   62  A    between atoms: _138  and  _140
REMARK   63  A    between atoms: _140  and  _141
REMARK   64  A    between atoms: _143  and  _145
REMARK   65  A    between atoms: _145  and  _146
REMARK   66  A    between atoms: _145  and  _148
REMARK   67  A    between atoms: _148  and  _149
REMARK   68  A    between atoms: _155  and  _157
REMARK   69  A    between atoms: _157  and  _158
REMARK   70  A    between atoms: _157  and  _160
REMARK   71  A    between atoms: _160  and  _161
REMARK   72  A    between atoms: _164  and  _166
REMARK   73  A    between atoms: _166  and  _167
REMARK   74  A    between atoms: _166  and  _169
REMARK   75  A    between atoms: _172  and  _174
REMARK   76  A    between atoms: _174  and  _175
REMARK   77  A    between atoms: _174  and  _177
REMARK   78  A    between atoms: _177  and  _178
REMARK   79  A    between atoms: _181  and  _183
REMARK   80  A    between atoms: _183  and  _184
REMARK   81  A    between atoms: _183  and  _186
REMARK   82  A    between atoms: _186  and  _187
REMARK   83  A    between atoms: _191  and  _192
REMARK   84  A    between atoms: _197  and  _199
REMARK   85  A    between atoms: _199  and  _200
REMARK   86  A    between atoms: _199  and  _202
REMARK   87  A    between atoms: _202  and  _203
REMARK   88  A    between atoms: _206  and  _208
REMARK   89  A    between atoms: _208  and  _209
REMARK   90  A    between atoms: _208  and  _211
REMARK   91  A    between atoms: _211  and  _212
REMARK   92  A    between atoms: _215  and  _217
REMARK   93  A    between atoms: _217  and  _218
REMARK   94  A    between atoms: _220  and  _222
REMARK   95  A    between atoms: _222  and  _223
REMARK   96  A    between atoms: _222  and  _225
REMARK   97  A    between atoms: _225  and  _226
REMARK   98  A    between atoms: _226  and  _227
REMARK   99  A    between atoms: _227  and  _228
REMARK  100  A    between atoms: _237  and  _239
REMARK  101  A    between atoms: _239  and  _240
REMARK  102  A    between atoms: _239  and  _242
REMARK  103  A    between atoms: _242  and  _243
REMARK  104  A    between atoms: _248  and  _250
REMARK  105  A    between atoms: _250  and  _251
REMARK  106  A    between atoms: _250  and  _253
REMARK  107  A    between atoms: _253  and  _254
REMARK  108  A    between atoms: _254  and  _255
REMARK  109  A    between atoms: _255  and  _256
REMARK  110  A    between atoms: _266  and  _267
REMARK  111  A    between atoms: _272  and  _274
REMARK  112  A    between atoms: _274  and  _275
REMARK  113  A    between atoms: _274  and  _277
REMARK  114  A    between atoms: _277  and  _278
REMARK  115  A    between atoms: _281  and  _283
REMARK  116  A    between atoms: _283  and  _284
REMARK  117  A    between atoms: _283  and  _286
REMARK  118  A    between atoms: _286  and  _287
REMARK  119  A    between atoms: _290  and  _292
REMARK  120  A    between atoms: _292  and  _293
REMARK  121  A    between atoms: _292  and  _295
REMARK  122  A    between atoms: _295  and  _296
REMARK  123  A    between atoms: _299  and  _301
REMARK  124  A    between atoms: _301  and  _302
REMARK  125  A    between atoms: _301  and  _304
REMARK  126  A    between atoms: _304  and  _305
REMARK  127  A    between atoms: _308  and  _310
REMARK  128  A    between atoms: _310  and  _311
REMARK  129  A    between atoms: _310  and  _313
REMARK  130  A    between atoms: _313  and  _314
REMARK  131  A    between atoms: _317  and  _319
REMARK  132  A    between atoms: _319  and  _320
REMARK  133  A    between atoms: _322  and  _324
REMARK  134  A    between atoms: _324  and  _325
REMARK  135  A    between atoms: _328  and  _330
REMARK  136  A    between atoms: _330  and  _331
REMARK  137  A    between atoms: _330  and  _333
REMARK  138  A    between atoms: _333  and  _334
REMARK  139  A    between atoms: _337  and  _339
REMARK  140  A    between atoms: _339  and  _340
REMARK  141  A    between atoms: _339  and  _342
REMARK  142  A    between atoms: _342  and  _343
REMARK  143  A    between atoms: _346  and  _348
REMARK  144  A    between atoms: _348  and  _349
REMARK  145  A    between atoms: _348  and  _351
REMARK  146  A    between atoms: _354  and  _356
REMARK  147  A    between atoms: _356  and  _357
REMARK  148  A    between atoms: _356  and  _359
REMARK  149  A    between atoms: _359  and  _360
REMARK  150  A    between atoms: _363  and  _365
REMARK  151  A    between atoms: _365  and  _366
REMARK  152  A    between atoms: _368  and  _370
REMARK  153  A    between atoms: _370  and  _371
REMARK  154  A    between atoms: _373  and  _375
REMARK  155  A    between atoms: _375  and  _376
REMARK  156  A    between atoms: _375  and  _378
REMARK  157  A    between atoms: _378  and  _379
REMARK  158  A    between atoms: _382  and  _384
REMARK  159  A    between atoms: _384  and  _385
REMARK  160  A    between atoms: _387  and  _389
REMARK  161  A    between atoms: _389  and  _390
REMARK  162  A    between atoms: _392  and  _394
REMARK  163  A    between atoms: _394  and  _395
REMARK  164  A    between atoms: _394  and  _397
REMARK  165  A    between atoms: _397  and  _398
REMARK  166  A    between atoms: _402  and  _403
REMARK  167  A    between atoms: _408  and  _410
REMARK  168  A    between atoms: _410  and  _411
REMARK  169  A    between atoms: _410  and  _413
REMARK  170  A    between atoms: _413  and  _414
REMARK  171  A    between atoms: _418  and  _419
REMARK  172  A    between atoms: _424  and  _426
REMARK  173  A    between atoms: _426  and  _427
REMARK  174  A    between atoms: _426  and  _429
REMARK  175  A    between atoms: _432  and  _434
REMARK  176  A    between atoms: _434  and  _435
REMARK  177  A    between atoms: _434  and  _437
REMARK  178  A    between atoms: _437  and  _438
REMARK  179  A    between atoms: _443  and  _445
REMARK  180  A    between atoms: _445  and  _446
REMARK  181  A    between atoms: _445  and  _448
REMARK  182  A    between atoms: _448  and  _449
REMARK  183  A    between atoms: _452  and  _454
REMARK  184  A    between atoms: _454  and  _455
REMARK  185  A    between atoms: _454  and  _457
REMARK  186  A    between atoms: _457  and  _458
REMARK  187  A    between atoms: _461  and  _463
REMARK  188  A    between atoms: _463  and  _464
REMARK                            x       y       z     vdW  Elec       q    Type
REMARK                         _______ _______ _______ _____ _____    ______ ____
ROOT
ATOM      1  O   HOH     1      20.515  21.913   6.250  0.00  0.00    +0.000 OA
ENDROOT
TORSDOF 0
REMARK  Name = ../refined-set-2016/1a30/1a30_pocket.pdb
REMARK  188 active torsions:
REMARK  status: ('A' for Active; 'I' for Inactive)
REMARK    1  A    between atoms: _1  and  _3
REMARK    2  A    between atoms: _3  and  _4
REMARK    3  A    between atoms: _3  and  _6
REMARK    4  A    between atoms: _6  and  _7
REMARK    5  A    between atoms: _10  and  _12
REMARK    6  A    between atoms: _12  and  _13
REMARK    7  A    between atoms: _12  and  _15
REMARK    8  A    between atoms: _15  and  _16
REMARK    9  A    between atoms: _19  and  _21
REMARK   10  A    between atoms: _21  and  _22
REMARK   11  A    between atoms: _21  and  _24
REMARK   12  A    between atoms: _24  and  _25
REMARK   13  A    between atoms: _28  and  _30
REMARK   14  A    between atoms: _30  and  _31
REMARK   15  A    between atoms: _30  and  _33
REMARK   16  A    between atoms: _33  and  _34
REMARK   17  A    between atoms: _37  and  _39
REMARK   18  A    between atoms: _39  and  _40
REMARK   19  A    between atoms: _42  and  _44
REMARK   20  A    between atoms: _44  and  _45
REMARK   21  A    between atoms: _48  and  _50
REMARK   22  A    between atoms: _50  and  _51
REMARK   23  A    between atoms: _50  and  _53
REMARK   24  A    between atoms: _53  and  _54
REMARK   25  A    between atoms: _57  and  _59
REMARK   26  A    between atoms: _59  and  _60
REMARK   27  A    between atoms: _59  and  _62
REMARK   28  A    between atoms: _62  and  _63
REMARK   29  A    between atoms: _66  and  _68
REMARK   30  A    between atoms: _68  and  _69
REMARK   31  A    between atoms: _68  and  _71
REMARK   32  A    between atoms: _71  and  _72
REMARK   33  A    between atoms: _75  and  _77
REMARK   34  A    between atoms: _77  and  _78
REMARK   35  A    between atoms: _77  and  _80
REMARK   36  A    between atoms: _83  and  _85
REMARK   37  A    between atoms: _85  and  _86
REMARK   38  A    between atoms: _85  and  _88
REMARK   39  A    between atoms: _88  and  _89
REMARK   40  A    between atoms: _89  and  _90
REMARK   41  A    between atoms: _90  and  _91
REMARK   42  A    between atoms: _91  and  _92
REMARK   43  A    between atoms: _96  and  _98
REMARK   44  A    between atoms: _98  and  _99
REMARK   45  A    between atoms: _98  and  _101
REMARK   46  A    between atoms: _101  and  _102
REMARK   47  A    between atoms: _102  and  _103
REMARK   48  A    between atoms: _105  and  _107
REMARK   49  A    between atoms: _107  and  _108
REMARK   50  A    between atoms: _107  and  _110
REMARK   51  A    between atoms: _110  and  _111
REMARK   52  A    between atoms: _114  and  _116
REMARK   53  A    between atoms: _116  and  _117
REMARK   54  A    between atoms: _119  and  _121
REMARK   55  A    between atoms: _121  and  _122
REMARK   56  A    between atoms: _124  and  _126
REMARK   57  A    between atoms: _126  and  _127
REMARK   58  A    between atoms: _126  and  _129
REMARK   59  A    between atoms: _129  and  _130
REMARK   60  A    between atoms: _133  and  _135
REMARK   61  A    between atoms: _135  and  _136
REMARK   62  A    between atoms: _138  and  _140
REMARK   63  A    between atoms: _140  and  _141
REMARK   64  A    between atoms: _143  and  _145
REMARK   65  A    between atoms: _145  and  _146
REMARK   66  A    between atoms: _145  and  _148
REMARK   67  A    between atoms: _148  and  _149
REMARK   68  A    between atoms: _155  and  _157
REMARK   69  A    between atoms: _157  and  _158
REMARK   70  A    between atoms: _157  and  _160
REMARK   71  A    between atoms: _160  and  _161
REMARK   72  A    between atoms: _164  and  _166
REMARK   73  A    between atoms: _166  and  _167
REMARK   74  A    between atoms: _166  and  _169
REMARK   75  A    between atoms: _172  and  _174
REMARK   76  A    between atoms: _174  and  _175
REMARK   77  A    between atoms: _174  and  _177
REMARK   78  A    between atoms: _177  and  _178
REMARK   79  A    between atoms: _181  and  _183
REMARK   80  A    between atoms: _183  and  _184
REMARK   81  A    between atoms: _183  and  _186
REMARK   82  A    between atoms: _186  and  _187
REMARK   83  A    between atoms: _191  and  _192
REMARK   84  A    between atoms: _197  and  _199
REMARK   85  A    between atoms: _199  and  _200
REMARK   86  A    between atoms: _199  and  _202
REMARK   87  A    between atoms: _202  and  _203
REMARK   88  A    between atoms: _206  and  _208
REMARK   89  A    between atoms: _208  and  _209
REMARK   90  A    between atoms: _208  and  _211
REMARK   91  A    between atoms: _211  and  _212
REMARK   92  A    between atoms: _215  and  _217
REMARK   93  A    between atoms: _217  and  _218
REMARK   94  A    between atoms: _220  and  _222
REMARK   95  A    between atoms: _222  and  _223
REMARK   96  A    between atoms: _222  and  _225
REMARK   97  A    between atoms: _225  and  _226
REMARK   98  A    between atoms: _226  and  _227
REMARK   99  A    between atoms: _227  and  _228
REMARK  100  A    between atoms: _237  and  _239
REMARK  101  A    between atoms: _239  and  _240
REMARK  102  A    between atoms: _239  and  _242
REMARK  103  A    between atoms: _242  and  _243
REMARK  104  A    between atoms: _248  and  _250
REMARK  105  A    between atoms: _250  and  _251
REMARK  106  A    between atoms: _250  and  _253
REMARK  107  A    between atoms: _253  and  _254
REMARK  108  A    between atoms: _254  and  _255
REMARK  109  A    between atoms: _255  and  _256
REMARK  110  A    between atoms: _266  and  _267
REMARK  111  A    between atoms: _272  and  _274
REMARK  112  A    between atoms: _274  and  _275
REMARK  113  A    between atoms: _274  and  _277
REMARK  114  A    between atoms: _277  and  _278
REMARK  115  A    between atoms: _281  and  _283
REMARK  116  A    between atoms: _283  and  _284
REMARK  117  A    between atoms: _283  and  _286
REMARK  118  A    between atoms: _286  and  _287
REMARK  119  A    between atoms: _290  and  _292
REMARK  120  A    between atoms: _292  and  _293
REMARK  121  A    between atoms: _292  and  _295
REMARK  122  A    between atoms: _295  and  _296
REMARK  123  A    between atoms: _299  and  _301
REMARK  124  A    between atoms: _301  and  _302
REMARK  125  A    between atoms: _301  and  _304
REMARK  126  A    between atoms: _304  and  _305
REMARK  127  A    between atoms: _308  and  _310
REMARK  128  A    between atoms: _310  and  _311
REMARK  129  A    between atoms: _310  and  _313
REMARK  130  A    between atoms: _313  and  _314
REMARK  131  A    between atoms: _317  and  _319
REMARK  132  A    between atoms: _319  and  _320
REMARK  133  A    between atoms: _322  and  _324
REMARK  134  A    between atoms: _324  and  _325
REMARK  135  A    between atoms: _328  and  _330
REMARK  136  A    between atoms: _330  and  _331
REMARK  137  A    between atoms: _330  and  _333
REMARK  138  A    between atoms: _333  and  _334
REMARK  139  A    between atoms: _337  and  _339
REMARK  140  A    between atoms: _339  and  _340
REMARK  141  A    between atoms: _339  and  _342
REMARK  142  A    between atoms: _342  and  _343
REMARK  143  A    between atoms: _346  and  _348
REMARK  144  A    between atoms: _348  and  _349
REMARK  145  A    between atoms: _348  and  _351
REMARK  146  A    between atoms: _354  and  _356
REMARK  147  A    between atoms: _356  and  _357
REMARK  148  A    between atoms: _356  and  _359
REMARK  149  A    between atoms: _359  and  _360
REMARK  150  A    between atoms: _363  and  _365
REMARK  151  A    between atoms: _365  and  _366
REMARK  152  A    between atoms: _368  and  _370
REMARK  153  A    between atoms: _370  and  _371
REMARK  154  A    between atoms: _373  and  _375
REMARK  155  A    between atoms: _375  and  _376
REMARK  156  A    between atoms: _375  and  _378
REMARK  157  A    between atoms: _378  and  _379
REMARK  158  A    between atoms: _382  and  _384
REMARK  159  A    between atoms: _384  and  _385
REMARK  160  A    between atoms: _387  and  _389
REMARK  161  A    between atoms: _389  and  _390
REMARK  162  A    between atoms: _392  and  _394
REMARK  163  A    between atoms: _394  and  _395
REMARK  164  A    between atoms: _394  and  _397
REMARK  165  A    between atoms: _397  and  _398
REMARK  166  A    between atoms: _402  and  _403
REMARK  167  A    between atoms: _408  and  _410
REMARK  168  A    between atoms: _410  and  _411
REMARK  169  A    between atoms: _410  and  _413
REMARK  170  A    between atoms: _413  and  _414
REMARK  171  A    between atoms: _418  and  _419
REMARK  172  A    between atoms: _424  and  _426
REMARK  173  A    between atoms: _426  and  _427
REMARK  174  A    between atoms: _426  and  _429
REMARK  175  A    between atoms: _432  and  _434
REMARK  176  A    between atoms: _434  and  _435
REMARK  177  A    between atoms: _434  and  _437
REMARK  178  A    between atoms: _437  and  _438
REMARK  179  A    between atoms: _443  and  _445
REMARK  180  A    between atoms: _445  and  _446
REMARK  181  A    between atoms: _445  and  _448
REMARK  182  A    between atoms: _448  and  _449
REMARK  183  A    between atoms: _452  and  _454
REMARK  184  A    between atoms: _454  and  _455
REMARK  185  A    between atoms: _454  and  _457
REMARK  186  A    between atoms: _457  and  _458
REMARK  187  A    between atoms: _461  and  _463
REMARK  188  A    between atoms: _463  and  _464
REMARK                            x       y       z     vdW  Elec       q    Type
REMARK                         _______ _______ _______ _____ _____    ______ ____
ROOT
ATOM      1  O   HOH     1       3.240  26.136   7.098  0.00  0.00    +0.000 OA
ENDROOT
TORSDOF 0
REMARK  Name = ../refined-set-2016/1a30/1a30_pocket.pdb
REMARK  188 active torsions:
REMARK  status: ('A' for Active; 'I' for Inactive)
REMARK    1  A    between atoms: _1  and  _3
REMARK    2  A    between atoms: _3  and  _4
REMARK    3  A    between atoms: _3  and  _6
REMARK    4  A    between atoms: _6  and  _7
REMARK    5  A    between atoms: _10  and  _12
REMARK    6  A    between atoms: _12  and  _13
REMARK    7  A    between atoms: _12  and  _15
REMARK    8  A    between atoms: _15  and  _16
REMARK    9  A    between atoms: _19  and  _21
REMARK   10  A    between atoms: _21  and  _22
REMARK   11  A    between atoms: _21  and  _24
REMARK   12  A    between atoms: _24  and  _25
REMARK   13  A    between atoms: _28  and  _30
REMARK   14  A    between atoms: _30  and  _31
REMARK   15  A    between atoms: _30  and  _33
REMARK   16  A    between atoms: _33  and  _34
REMARK   17  A    between atoms: _37  and  _39
REMARK   18  A    between atoms: _39  and  _40
REMARK   19  A    between atoms: _42  and  _44
REMARK   20  A    between atoms: _44  and  _45
REMARK   21  A    between atoms: _48  and  _50
REMARK   22  A    between atoms: _50  and  _51
REMARK   23  A    between atoms: _50  and  _53
REMARK   24  A    between atoms: _53  and  _54
REMARK   25  A    between atoms: _57  and  _59
REMARK   26  A    between atoms: _59  and  _60
REMARK   27  A    between atoms: _59  and  _62
REMARK   28  A    between atoms: _62  and  _63
REMARK   29  A    between atoms: _66  and  _68
REMARK   30  A    between atoms: _68  and  _69
REMARK   31  A    between atoms: _68  and  _71
REMARK   32  A    between atoms: _71  and  _72
REMARK   33  A    between atoms: _75  and  _77
REMARK   34  A    between atoms: _77  and  _78
REMARK   35  A    between atoms: _77  and  _80
REMARK   36  A    between atoms: _83  and  _85
REMARK   37  A    between atoms: _85  and  _86
REMARK   38  A    between atoms: _85  and  _88
REMARK   39  A    between atoms: _88  and  _89
REMARK   40  A    between atoms: _89  and  _90
REMARK   41  A    between atoms: _90  and  _91
REMARK   42  A    between atoms: _91  and  _92
REMARK   43  A    between atoms: _96  and  _98
REMARK   44  A    between atoms: _98  and  _99
REMARK   45  A    between atoms: _98  and  _101
REMARK   46  A    between atoms: _101  and  _102
REMARK   47  A    between atoms: _102  and  _103
REMARK   48  A    between atoms: _105  and  _107
REMARK   49  A    between atoms: _107  and  _108
REMARK   50  A    between atoms: _107  and  _110
REMARK   51  A    between atoms: _110  and  _111
REMARK   52  A    between atoms: _114  and  _116
REMARK   53  A    between atoms: _116  and  _117
REMARK   54  A    between atoms: _119  and  _121
REMARK   55  A    between atoms: _121  and  _122
REMARK   56  A    between atoms: _124  and  _126
REMARK   57  A    between atoms: _126  and  _127
REMARK   58  A    between atoms: _126  and  _129
REMARK   59  A    between atoms: _129  and  _130
REMARK   60  A    between atoms: _133  and  _135
REMARK   61  A    between atoms: _135  and  _136
REMARK   62  A    between atoms: _138  and  _140
REMARK   63  A    between atoms: _140  and  _141
REMARK   64  A    between atoms: _143  and  _145
REMARK   65  A    between atoms: _145  and  _146
REMARK   66  A    between atoms: _145  and  _148
REMARK   67  A    between atoms: _148  and  _149
REMARK   68  A    between atoms: _155  and  _157
REMARK   69  A    between atoms: _157  and  _158
REMARK   70  A    between atoms: _157  and  _160
REMARK   71  A    between atoms: _160  and  _161
REMARK   72  A    between atoms: _164  and  _166
REMARK   73  A    between atoms: _166  and  _167
REMARK   74  A    between atoms: _166  and  _169
REMARK   75  A    between atoms: _172  and  _174
REMARK   76  A    between atoms: _174  and  _175
REMARK   77  A    between atoms: _174  and  _177
REMARK   78  A    between atoms: _177  and  _178
REMARK   79  A    between atoms: _181  and  _183
REMARK   80  A    between atoms: _183  and  _184
REMARK   81  A    between atoms: _183  and  _186
REMARK   82  A    between atoms: _186  and  _187
REMARK   83  A    between atoms: _191  and  _192
REMARK   84  A    between atoms: _197  and  _199
REMARK   85  A    between atoms: _199  and  _200
REMARK   86  A    between atoms: _199  and  _202
REMARK   87  A    between atoms: _202  and  _203
REMARK   88  A    between atoms: _206  and  _208
REMARK   89  A    between atoms: _208  and  _209
REMARK   90  A    between atoms: _208  and  _211
REMARK   91  A    between atoms: _211  and  _212
REMARK   92  A    between atoms: _215  and  _217
REMARK   93  A    between atoms: _217  and  _218
REMARK   94  A    between atoms: _220  and  _222
REMARK   95  A    between atoms: _222  and  _223
REMARK   96  A    between atoms: _222  and  _225
REMARK   97  A    between atoms: _225  and  _226
REMARK   98  A    between atoms: _226  and  _227
REMARK   99  A    between atoms: _227  and  _228
REMARK  100  A    between atoms: _237  and  _239
REMARK  101  A    between atoms: _239  and  _240
REMARK  102  A    between atoms: _239  and  _242
REMARK  103  A    between atoms: _242  and  _243
REMARK  104  A    between atoms: _248  and  _250
REMARK  105  A    between atoms: _250  and  _251
REMARK  106  A    between atoms: _250  and  _253
REMARK  107  A    between atoms: _253  and  _254
REMARK  108  A    between atoms: _254  and  _255
REMARK  109  A    between atoms: _255  and  _256
REMARK  110  A    between atoms: _266  and  _267
REMARK  111  A    between atoms: _272  and  _274
REMARK  112  A    between atoms: _274  and  _275
REMARK  113  A    between atoms: _274  and  _277
REMARK  114  A    between atoms: _277  and  _278
REMARK  115  A    between atoms: _281  and  _283
REMARK  116  A    between atoms: _283  and  _284
REMARK  117  A    between atoms: _283  and  _286
REMARK  118  A    between atoms: _286  and  _287
REMARK  119  A    between atoms: _290  and  _292
REMARK  120  A    between atoms: _292  and  _293
REMARK  121  A    between atoms: _292  and  _295
REMARK  122  A    between atoms: _295  and  _296
REMARK  123  A    between atoms: _299  and  _301
REMARK  124  A    between atoms: _301  and  _302
REMARK  125  A    between atoms: _301  and  _304
REMARK  126  A    between atoms: _304  and  _305
REMARK  127  A    between atoms: _308  and  _310
REMARK  128  A    between atoms: _310  and  _311
REMARK  129  A    between atoms: _310  and  _313
REMARK  130  A    between atoms: _313  and  _314
REMARK  131  A    between atoms: _317  and  _319
REMARK  132  A    between atoms: _319  and  _320
REMARK  133  A    between atoms: _322  and  _324
REMARK  134  A    between atoms: _324  and  _325
REMARK  135  A    between atoms: _328  and  _330
REMARK  136  A    between atoms: _330  and  _331
REMARK  137  A    between atoms: _330  and  _333
REMARK  138  A    between atoms: _333  and  _334
REMARK  139  A    between atoms: _337  and  _339
REMARK  140  A    between atoms: _339  and  _340
REMARK  141  A    between atoms: _339  and  _342
REMARK  142  A    between atoms: _342  and  _343
REMARK  143  A    between atoms: _346  and  _348
REMARK  144  A    between atoms: _348  and  _349
REMARK  145  A    between atoms: _348  and  _351
REMARK  146  A    between atoms: _354  and  _356
REMARK  147  A    between atoms: _356  and  _357
REMARK  148  A    between atoms: _356  and  _359
REMARK  149  A    between atoms: _359  and  _360
REMARK  150  A    between atoms: _363  and  _365
REMARK  151  A    between atoms: _365  and  _366
REMARK  152  A    between atoms: _368  and  _370
REMARK  153  A    between atoms: _370  and  _371
REMARK  154  A    between atoms: _373  and  _375
REMARK  155  A    between atoms: _375  and  _376
REMARK  156  A    between atoms: _375  and  _378
REMARK  157  A    between atoms: _378  and  _379
REMARK  158  A    between atoms: _382  and  _384
REMARK  159  A    between atoms: _384  and  _385
REMARK  160  A    between atoms: _387  and  _389
REMARK  161  A    between atoms: _389  and  _390
REMARK  162  A    between atoms: _392  and  _394
REMARK  163  A    between atoms: _394  and  _395
REMARK  164  A    between atoms: _394  and  _397
REMARK  165  A    between atoms: _397  and  _398
REMARK  166  A    between atoms: _402  and  _403
REMARK  167  A    between atoms: _408  and  _410
REMARK  168  A    between atoms: _410  and  _411
REMARK  169  A    between atoms: _410  and  _413
REMARK  170  A    between atoms: _413  and  _414
REMARK  171  A    between atoms: _418  and  _419
REMARK  172  A    between atoms: _424  and  _426
REMARK  173  A    between atoms: _426  and  _427
REMARK  174  A    between atoms: _426  and  _429
REMARK  175  A    between atoms: _432  and  _434
REMARK  176  A    between atoms: _434  and  _435
REMARK  177  A    between atoms: _434  and  _437
REMARK  178  A    between atoms: _437  and  _438
REMARK  179  A    between atoms: _443  and  _445
REMARK  180  A    between atoms: _445  and  _446
REMARK  181  A    between atoms: _445  and  _448
REMARK  182  A    between atoms: _448  and  _449
REMARK  183  A    between atoms: _452  and  _454
REMARK  184  A    between atoms: _454  and  _455
REMARK  185  A    between atoms: _454  and  _457
REMARK  186  A    between atoms: _457  and  _458
REMARK  187  A    between atoms: _461  and  _463
REMARK  188  A    between atoms: _463  and  _464
REMARK                            x       y       z     vdW  Elec       q    Type
REMARK                         _______ _______ _______ _____ _____    ______ ____
ROOT
ATOM      1  O   HOH     1       2.466  27.866   4.093  0.00  0.00    +0.000 OA
ENDROOT
TORSDOF 0
REMARK  Name = ../refined-set-2016/1a30/1a30_pocket.pdb
REMARK  188 active torsions:
REMARK  status: ('A' for Active; 'I' for Inactive)
REMARK    1  A    between atoms: _1  and  _3
REMARK    2  A    between atoms: _3  and  _4
REMARK    3  A    between atoms: _3  and  _6
REMARK    4  A    between atoms: _6  and  _7
REMARK    5  A    between atoms: _10  and  _12
REMARK    6  A    between atoms: _12  and  _13
REMARK    7  A    between atoms: _12  and  _15
REMARK    8  A    between atoms: _15  and  _16
REMARK    9  A    between atoms: _19  and  _21
REMARK   10  A    between atoms: _21  and  _22
REMARK   11  A    between atoms: _21  and  _24
REMARK   12  A    between atoms: _24  and  _25
REMARK   13  A    between atoms: _28  and  _30
REMARK   14  A    between atoms: _30  and  _31
REMARK   15  A    between atoms: _30  and  _33
REMARK   16  A    between atoms: _33  and  _34
REMARK   17  A    between atoms: _37  and  _39
REMARK   18  A    between atoms: _39  and  _40
REMARK   19  A    between atoms: _42  and  _44
REMARK   20  A    between atoms: _44  and  _45
REMARK   21  A    between atoms: _48  and  _50
REMARK   22  A    between atoms: _50  and  _51
REMARK   23  A    between atoms: _50  and  _53
REMARK   24  A    between atoms: _53  and  _54
REMARK   25  A    between atoms: _57  and  _59
REMARK   26  A    between atoms: _59  and  _60
REMARK   27  A    between atoms: _59  and  _62
REMARK   28  A    between atoms: _62  and  _63
REMARK   29  A    between atoms: _66  and  _68
REMARK   30  A    between atoms: _68  and  _69
REMARK   31  A    between atoms: _68  and  _71
REMARK   32  A    between atoms: _71  and  _72
REMARK   33  A    between atoms: _75  and  _77
REMARK   34  A    between atoms: _77  and  _78
REMARK   35  A    between atoms: _77  and  _80
REMARK   36  A    between atoms: _83  and  _85
REMARK   37  A    between atoms: _85  and  _86
REMARK   38  A    between atoms: _85  and  _88
REMARK   39  A    between atoms: _88  and  _89
REMARK   40  A    between atoms: _89  and  _90
REMARK   41  A    between atoms: _90  and  _91
REMARK   42  A    between atoms: _91  and  _92
REMARK   43  A    between atoms: _96  and  _98
REMARK   44  A    between atoms: _98  and  _99
REMARK   45  A    between atoms: _98  and  _101
REMARK   46  A    between atoms: _101  and  _102
REMARK   47  A    between atoms: _102  and  _103
REMARK   48  A    between atoms: _105  and  _107
REMARK   49  A    between atoms: _107  and  _108
REMARK   50  A    between atoms: _107  and  _110
REMARK   51  A    between atoms: _110  and  _111
REMARK   52  A    between atoms: _114  and  _116
REMARK   53  A    between atoms: _116  and  _117
REMARK   54  A    between atoms: _119  and  _121
REMARK   55  A    between atoms: _121  and  _122
REMARK   56  A    between atoms: _124  and  _126
REMARK   57  A    between atoms: _126  and  _127
REMARK   58  A    between atoms: _126  and  _129
REMARK   59  A    between atoms: _129  and  _130
REMARK   60  A    between atoms: _133  and  _135
REMARK   61  A    between atoms: _135  and  _136
REMARK   62  A    between atoms: _138  and  _140
REMARK   63  A    between atoms: _140  and  _141
REMARK   64  A    between atoms: _143  and  _145
REMARK   65  A    between atoms: _145  and  _146
REMARK   66  A    between atoms: _145  and  _148
REMARK   67  A    between atoms: _148  and  _149
REMARK   68  A    between atoms: _155  and  _157
REMARK   69  A    between atoms: _157  and  _158
REMARK   70  A    between atoms: _157  and  _160
REMARK   71  A    between atoms: _160  and  _161
REMARK   72  A    between atoms: _164  and  _166
REMARK   73  A    between atoms: _166  and  _167
REMARK   74  A    between atoms: _166  and  _169
REMARK   75  A    between atoms: _172  and  _174
REMARK   76  A    between atoms: _174  and  _175
REMARK   77  A    between atoms: _174  and  _177
REMARK   78  A    between atoms: _177  and  _178
REMARK   79  A    between atoms: _181  and  _183
REMARK   80  A    between atoms: _183  and  _184
REMARK   81  A    between atoms: _183  and  _186
REMARK   82  A    between atoms: _186  and  _187
REMARK   83  A    between atoms: _191  and  _192
REMARK   84  A    between atoms: _197  and  _199
REMARK   85  A    between atoms: _199  and  _200
REMARK   86  A    between atoms: _199  and  _202
REMARK   87  A    between atoms: _202  and  _203
REMARK   88  A    between atoms: _206  and  _208
REMARK   89  A    between atoms: _208  and  _209
REMARK   90  A    between atoms: _208  and  _211
REMARK   91  A    between atoms: _211  and  _212
REMARK   92  A    between atoms: _215  and  _217
REMARK   93  A    between atoms: _217  and  _218
REMARK   94  A    between atoms: _220  and  _222
REMARK   95  A    between atoms: _222  and  _223
REMARK   96  A    between atoms: _222  and  _225
REMARK   97  A    between atoms: _225  and  _226
REMARK   98  A    between atoms: _226  and  _227
REMARK   99  A    between atoms: _227  and  _228
REMARK  100  A    between atoms: _237  and  _239
REMARK  101  A    between atoms: _239  and  _240
REMARK  102  A    between atoms: _239  and  _242
REMARK  103  A    between atoms: _242  and  _243
REMARK  104  A    between atoms: _248  and  _250
REMARK  105  A    between atoms: _250  and  _251
REMARK  106  A    between atoms: _250  and  _253
REMARK  107  A    between atoms: _253  and  _254
REMARK  108  A    between atoms: _254  and  _255
REMARK  109  A    between atoms: _255  and  _256
REMARK  110  A    between atoms: _266  and  _267
REMARK  111  A    between atoms: _272  and  _274
REMARK  112  A    between atoms: _274  and  _275
REMARK  113  A    between atoms: _274  and  _277
REMARK  114  A    between atoms: _277  and  _278
REMARK  115  A    between atoms: _281  and  _283
REMARK  116  A    between atoms: _283  and  _284
REMARK  117  A    between atoms: _283  and  _286
REMARK  118  A    between atoms: _286  and  _287
REMARK  119  A    between atoms: _290  and  _292
REMARK  120  A    between atoms: _292  and  _293
REMARK  121  A    between atoms: _292  and  _295
REMARK  122  A    between atoms: _295  and  _296
REMARK  123  A    between atoms: _299  and  _301
REMARK  124  A    between atoms: _301  and  _302
REMARK  125  A    between atoms: _301  and  _304
REMARK  126  A    between atoms: _304  and  _305
REMARK  127  A    between atoms: _308  and  _310
REMARK  128  A    between atoms: _310  and  _311
REMARK  129  A    between atoms: _310  and  _313
REMARK  130  A    between atoms: _313  and  _314
REMARK  131  A    between atoms: _317  and  _319
REMARK  132  A    between atoms: _319  and  _320
REMARK  133  A    between atoms: _322  and  _324
REMARK  134  A    between atoms: _324  and  _325
REMARK  135  A    between atoms: _328  and  _330
REMARK  136  A    between atoms: _330  and  _331
REMARK  137  A    between atoms: _330  and  _333
REMARK  138  A    between atoms: _333  and  _334
REMARK  139  A    between atoms: _337  and  _339
REMARK  140  A    between atoms: _339  and  _340
REMARK  141  A    between atoms: _339  and  _342
REMARK  142  A    between atoms: _342  and  _343
REMARK  143  A    between atoms: _346  and  _348
REMARK  144  A    between atoms: _348  and  _349
REMARK  145  A    between atoms: _348  and  _351
REMARK  146  A    between atoms: _354  and  _356
REMARK  147  A    between atoms: _356  and  _357
REMARK  148  A    between atoms: _356  and  _359
REMARK  149  A    between atoms: _359  and  _360
REMARK  150  A    between atoms: _363  and  _365
REMARK  151  A    between atoms: _365  and  _366
REMARK  152  A    between atoms: _368  and  _370
REMARK  153  A    between atoms: _370  and  _371
REMARK  154  A    between atoms: _373  and  _375
REMARK  155  A    between atoms: _375  and  _376
REMARK  156  A    between atoms: _375  and  _378
REMARK  157  A    between atoms: _378  and  _379
REMARK  158  A    between atoms: _382  and  _384
REMARK  159  A    between atoms: _384  and  _385
REMARK  160  A    between atoms: _387  and  _389
REMARK  161  A    between atoms: _389  and  _390
REMARK  162  A    between atoms: _392  and  _394
REMARK  163  A    between atoms: _394  and  _395
REMARK  164  A    between atoms: _394  and  _397
REMARK  165  A    between atoms: _397  and  _398
REMARK  166  A    between atoms: _402  and  _403
REMARK  167  A    between atoms: _408  and  _410
REMARK  168  A    between atoms: _410  and  _411
REMARK  169  A    between atoms: _410  and  _413
REMARK  170  A    between atoms: _413  and  _414
REMARK  171  A    between atoms: _418  and  _419
REMARK  172  A    between atoms: _424  and  _426
REMARK  173  A    between atoms: _426  and  _427
REMARK  174  A    between atoms: _426  and  _429
REMARK  175  A    between atoms: _432  and  _434
REMARK  176  A    between atoms: _434  and  _435
REMARK  177  A    between atoms: _434  and  _437
REMARK  178  A    between atoms: _437  and  _438
REMARK  179  A    between atoms: _443  and  _445
REMARK  180  A    between atoms: _445  and  _446
REMARK  181  A    between atoms: _445  and  _448
REMARK  182  A    between atoms: _448  and  _449
REMARK  183  A    between atoms: _452  and  _454
REMARK  184  A    between atoms: _454  and  _455
REMARK  185  A    between atoms: _454  and  _457
REMARK  186  A    between atoms: _457  and  _458
REMARK  187  A    between atoms: _461  and  _463
REMARK  188  A    between atoms: _463  and  _464
REMARK                            x       y       z     vdW  Elec       q    Type
REMARK                         _______ _______ _______ _____ _____    ______ ____
ROOT
ATOM      1  O   HOH     1      11.004  21.155   6.538  0.00  0.00    +0.000 OA
ENDROOT
TORSDOF 0
