REMARK  Name = ../refined-set-2016/4j28/4j28_pocket.pdb
REMARK  147 active torsions:
REMARK  status: ('A' for Active; 'I' for Inactive)
REMARK    1  A    between atoms: _1  and  _3
REMARK    2  A    between atoms: _3  and  _4
REMARK    3  A    between atoms: _3  and  _6
REMARK    4  A    between atoms: _6  and  _7
REMARK    5  A    between atoms: _13  and  _15
REMARK    6  A    between atoms: _15  and  _16
REMARK    7  A    between atoms: _15  and  _18
REMARK    8  A    between atoms: _18  and  _19
REMARK    9  A    between atoms: _22  and  _24
REMARK   10  A    between atoms: _24  and  _25
REMARK   11  A    between atoms: _24  and  _27
REMARK   12  A    between atoms: _27  and  _28
REMARK   13  A    between atoms: _33  and  _35
REMARK   14  A    between atoms: _35  and  _36
REMARK   15  A    between atoms: _35  and  _38
REMARK   16  A    between atoms: _38  and  _39
REMARK   17  A    between atoms: _44  and  _45
REMARK   18  A    between atoms: _47  and  _49
REMARK   19  A    between atoms: _49  and  _50
REMARK   20  A    between atoms: _53  and  _55
REMARK   21  A    between atoms: _55  and  _56
REMARK   22  A    between atoms: _59  and  _61
REMARK   23  A    between atoms: _61  and  _62
REMARK   24  A    between atoms: _61  and  _64
REMARK   25  A    between atoms: _64  and  _65
REMARK   26  A    between atoms: _65  and  _66
REMARK   27  A    between atoms: _69  and  _71
REMARK   28  A    between atoms: _71  and  _72
REMARK   29  A    between atoms: _71  and  _74
REMARK   30  A    between atoms: _74  and  _75
REMARK   31  A    between atoms: _85  and  _87
REMARK   32  A    between atoms: _87  and  _88
REMARK   33  A    between atoms: _87  and  _90
REMARK   34  A    between atoms: _90  and  _91
REMARK   35  A    between atoms: _101  and  _103
REMARK   36  A    between atoms: _103  and  _104
REMARK   37  A    between atoms: _103  and  _106
REMARK   38  A    between atoms: _106  and  _107
REMARK   39  A    between atoms: _107  and  _108
REMARK   40  A    between atoms: _108  and  _109
REMARK   41  A    between atoms: _109  and  _110
REMARK   42  A    between atoms: _114  and  _116
REMARK   43  A    between atoms: _116  and  _117
REMARK   44  A    between atoms: _116  and  _119
REMARK   45  A    between atoms: _119  and  _120
REMARK   46  A    between atoms: _123  and  _125
REMARK   47  A    between atoms: _125  and  _126
REMARK   48  A    between atoms: _125  and  _128
REMARK   49  A    between atoms: _128  and  _129
REMARK   50  A    between atoms: _129  and  _130
REMARK   51  A    between atoms: _130  and  _131
REMARK   52  A    between atoms: _131  and  _132
REMARK   53  A    between atoms: _136  and  _138
REMARK   54  A    between atoms: _138  and  _139
REMARK   55  A    between atoms: _138  and  _141
REMARK   56  A    between atoms: _141  and  _142
REMARK   57  A    between atoms: _147  and  _149
REMARK   58  A    between atoms: _149  and  _150
REMARK   59  A    between atoms: _149  and  _152
REMARK   60  A    between atoms: _152  and  _153
REMARK   61  A    between atoms: _158  and  _160
REMARK   62  A    between atoms: _160  and  _161
REMARK   63  A    between atoms: _160  and  _163
REMARK   64  A    between atoms: _163  and  _164
REMARK   65  A    between atoms: _164  and  _165
REMARK   66  A    between atoms: _168  and  _170
REMARK   67  A    between atoms: _170  and  _171
REMARK   68  A    between atoms: _170  and  _173
REMARK   69  A    between atoms: _173  and  _174
REMARK   70  A    between atoms: _179  and  _180
REMARK   71  A    between atoms: _182  and  _184
REMARK   72  A    between atoms: _184  and  _185
REMARK   73  A    between atoms: _184  and  _187
REMARK   74  A    between atoms: _187  and  _188
REMARK   75  A    between atoms: _190  and  _192
REMARK   76  A    between atoms: _192  and  _193
REMARK   77  A    between atoms: _192  and  _195
REMARK   78  A    between atoms: _195  and  _196
REMARK   79  A    between atoms: _196  and  _197
REMARK   80  A    between atoms: _199  and  _201
REMARK   81  A    between atoms: _201  and  _202
REMARK   82  A    between atoms: _201  and  _204
REMARK   83  A    between atoms: _204  and  _205
REMARK   84  A    between atoms: _215  and  _217
REMARK   85  A    between atoms: _217  and  _218
REMARK   86  A    between atoms: _217  and  _220
REMARK   87  A    between atoms: _220  and  _221
REMARK   88  A    between atoms: _231  and  _233
REMARK   89  A    between atoms: _233  and  _234
REMARK   90  A    between atoms: _233  and  _236
REMARK   91  A    between atoms: _236  and  _237
REMARK   92  A    between atoms: _243  and  _245
REMARK   93  A    between atoms: _245  and  _246
REMARK   94  A    between atoms: _245  and  _248
REMARK   95  A    between atoms: _248  and  _249
REMARK   96  A    between atoms: _252  and  _254
REMARK   97  A    between atoms: _254  and  _255
REMARK   98  A    between atoms: _257  and  _259
REMARK   99  A    between atoms: _259  and  _260
REMARK  100  A    between atoms: _259  and  _262
REMARK  101  A    between atoms: _262  and  _263
REMARK  102  A    between atoms: _266  and  _268
REMARK  103  A    between atoms: _268  and  _269
REMARK  104  A    between atoms: _268  and  _271
REMARK  105  A    between atoms: _271  and  _272
REMARK  106  A    between atoms: _282  and  _284
REMARK  107  A    between atoms: _284  and  _285
REMARK  108  A    between atoms: _284  and  _287
REMARK  109  A    between atoms: _287  and  _288
REMARK  110  A    between atoms: _288  and  _289
REMARK  111  A    between atoms: _289  and  _290
REMARK  112  A    between atoms: _299  and  _301
REMARK  113  A    between atoms: _301  and  _302
REMARK  114  A    between atoms: _301  and  _304
REMARK  115  A    between atoms: _304  and  _305
REMARK  116  A    between atoms: _305  and  _306
REMARK  117  A    between atoms: _309  and  _311
REMARK  118  A    between atoms: _311  and  _312
REMARK  119  A    between atoms: _311  and  _314
REMARK  120  A    between atoms: _316  and  _318
REMARK  121  A    between atoms: _318  and  _319
REMARK  122  A    between atoms: _318  and  _321
REMARK  123  A    between atoms: _321  and  _322
REMARK  124  A    between atoms: _322  and  _323
REMARK  125  A    between atoms: _325  and  _327
REMARK  126  A    between atoms: _327  and  _328
REMARK  127  A    between atoms: _327  and  _330
REMARK  128  A    between atoms: _330  and  _331
REMARK  129  A    between atoms: _334  and  _336
REMARK  130  A    between atoms: _336  and  _337
REMARK  131  A    between atoms: _336  and  _339
REMARK  132  A    between atoms: _339  and  _340
REMARK  133  A    between atoms: _345  and  _347
REMARK  134  A    between atoms: _347  and  _348
REMARK  135  A    between atoms: _347  and  _350
REMARK  136  A    between atoms: _350  and  _351
REMARK  137  A    between atoms: _351  and  _352
REMARK  138  A    between atoms: _357  and  _359
REMARK  139  A    between atoms: _359  and  _360
REMARK  140  A    between atoms: _359  and  _362
REMARK  141  A    between atoms: _362  and  _363
REMARK  142  A    between atoms: _373  and  _375
REMARK  143  A    between atoms: _375  and  _376
REMARK  144  A    between atoms: _378  and  _380
REMARK  145  A    between atoms: _380  and  _381
REMARK  146  A    between atoms: _380  and  _383
REMARK  147  A    between atoms: _383  and  _384
REMARK                            x       y       z     vdW  Elec       q    Type
REMARK                         _______ _______ _______ _____ _____    ______ ____
ROOT
ATOM      1  CA  ILE A   2     -10.863   1.981  25.902  0.00  0.00    +0.148 C 
ENDROOT
BRANCH   1   4
ATOM      2  C   PHE A   1     -11.726   0.754  27.845  0.00  0.00    +0.239 C 
ATOM      3  O   PHE A   1     -10.617   0.622  28.332  0.00  0.00    -0.274 OA
ATOM      4  N   ILE A   2     -11.920   1.277  26.644  0.00  0.00    -0.297 N 
ATOM      5  H   ILE A   2     -12.859   1.186  26.207  0.00  0.00    +0.150 HD
BRANCH   2   6
ATOM      6  CA  PHE A   1     -12.938   0.194  28.595  0.00  0.00    +0.149 C 
BRANCH   6   7
ATOM      7  N   PHE A   1     -12.505  -1.033  29.215  0.00  0.00    -0.238 NA
ATOM      8  H   PHE A   1     -11.826  -0.983  30.001  0.00  0.00    +0.142 HD
ENDBRANCH   6   7
BRANCH   6   9
ATOM      9  CB  PHE A   1     -13.348   1.203  29.674  0.00  0.00    +0.053 C 
BRANCH   9  10
ATOM     10  CG  PHE A   1     -14.593   1.927  29.346  0.00  0.00    -0.020 A 
ATOM     11  CD2 PHE A   1     -15.665   1.910  30.208  0.00  0.00    -0.004 A 
ATOM     12  CE2 PHE A   1     -16.859   2.582  29.880  0.00  0.00    -0.000 A 
ATOM     13  CZ  PHE A   1     -16.923   3.295  28.705  0.00  0.00    -0.000 A 
ATOM     14  CE1 PHE A   1     -15.843   3.362  27.878  0.00  0.00    -0.000 A 
ATOM     15  CD1 PHE A   1     -14.672   2.680  28.200  0.00  0.00    -0.004 A 
ENDBRANCH   9  10
ENDBRANCH   6   9
ENDBRANCH   2   6
ENDBRANCH   1   4
BRANCH   1  16
ATOM     16  C   ILE A   2     -11.325   3.448  25.748  0.00  0.00    +0.241 C 
ATOM     17  N   HIS A   3     -10.547   4.384  26.276  0.00  0.00    -0.298 N 
ATOM     18  H   HIS A   3      -9.780   4.079  26.908  0.00  0.00    +0.150 HD
ATOM     19  O   ILE A   2     -12.418   3.698  25.186  0.00  0.00    -0.273 OA
BRANCH  17  20
ATOM     20  CA  HIS A   3     -10.703   5.858  26.019  0.00  0.00    +0.143 C 
BRANCH  20  21
ATOM     21  C   HIS A   3      -9.560   6.277  25.148  0.00  0.00    +0.227 C 
ATOM     22  O   HIS A   3      -8.405   6.248  25.574  0.00  0.00    -0.286 OA
ENDBRANCH  20  21
BRANCH  20  23
ATOM     23  CB  HIS A   3     -10.668   6.678  27.304  0.00  0.00    +0.075 C 
BRANCH  23  24
ATOM     24  CG  HIS A   3     -11.994   6.799  27.971  0.00  0.00    +0.082 A 
ATOM     25  ND1 HIS A   3     -12.603   5.748  28.638  0.00  0.00    -0.227 NA
ATOM     26  CE1 HIS A   3     -13.787   6.150  29.071  0.00  0.00    +0.199 A 
ATOM     27  NE2 HIS A   3     -13.958   7.411  28.717  0.00  0.00    -0.221 NA
ATOM     28  CD2 HIS A   3     -12.834   7.857  28.078  0.00  0.00    +0.115 A 
ENDBRANCH  23  24
ENDBRANCH  20  23
ENDBRANCH  17  20
ENDBRANCH   1  16
BRANCH   1  29
ATOM     29  CB  ILE A   2     -10.729   1.389  24.485  0.00  0.00    +0.027 C 
ATOM     30  CG2 ILE A   2      -9.985   2.311  23.572  0.00  0.00    +0.002 C 
BRANCH  29  31
ATOM     31  CG1 ILE A   2     -10.120  -0.020  24.541  0.00  0.00    +0.002 C 
ATOM     32  CD1 ILE A   2      -8.692  -0.048  25.035  0.00  0.00    +0.000 C 
ENDBRANCH  29  31
ENDBRANCH   1  29
TORSDOF 12
REMARK  Name = ../refined-set-2016/4j28/4j28_pocket.pdb
REMARK  147 active torsions:
REMARK  status: ('A' for Active; 'I' for Inactive)
REMARK    1  A    between atoms: _1  and  _3
REMARK    2  A    between atoms: _3  and  _4
REMARK    3  A    between atoms: _3  and  _6
REMARK    4  A    between atoms: _6  and  _7
REMARK    5  A    between atoms: _13  and  _15
REMARK    6  A    between atoms: _15  and  _16
REMARK    7  A    between atoms: _15  and  _18
REMARK    8  A    between atoms: _18  and  _19
REMARK    9  A    between atoms: _22  and  _24
REMARK   10  A    between atoms: _24  and  _25
REMARK   11  A    between atoms: _24  and  _27
REMARK   12  A    between atoms: _27  and  _28
REMARK   13  A    between atoms: _33  and  _35
REMARK   14  A    between atoms: _35  and  _36
REMARK   15  A    between atoms: _35  and  _38
REMARK   16  A    between atoms: _38  and  _39
REMARK   17  A    between atoms: _44  and  _45
REMARK   18  A    between atoms: _47  and  _49
REMARK   19  A    between atoms: _49  and  _50
REMARK   20  A    between atoms: _53  and  _55
REMARK   21  A    between atoms: _55  and  _56
REMARK   22  A    between atoms: _59  and  _61
REMARK   23  A    between atoms: _61  and  _62
REMARK   24  A    between atoms: _61  and  _64
REMARK   25  A    between atoms: _64  and  _65
REMARK   26  A    between atoms: _65  and  _66
REMARK   27  A    between atoms: _69  and  _71
REMARK   28  A    between atoms: _71  and  _72
REMARK   29  A    between atoms: _71  and  _74
REMARK   30  A    between atoms: _74  and  _75
REMARK   31  A    between atoms: _85  and  _87
REMARK   32  A    between atoms: _87  and  _88
REMARK   33  A    between atoms: _87  and  _90
REMARK   34  A    between atoms: _90  and  _91
REMARK   35  A    between atoms: _101  and  _103
REMARK   36  A    between atoms: _103  and  _104
REMARK   37  A    between atoms: _103  and  _106
REMARK   38  A    between atoms: _106  and  _107
REMARK   39  A    between atoms: _107  and  _108
REMARK   40  A    between atoms: _108  and  _109
REMARK   41  A    between atoms: _109  and  _110
REMARK   42  A    between atoms: _114  and  _116
REMARK   43  A    between atoms: _116  and  _117
REMARK   44  A    between atoms: _116  and  _119
REMARK   45  A    between atoms: _119  and  _120
REMARK   46  A    between atoms: _123  and  _125
REMARK   47  A    between atoms: _125  and  _126
REMARK   48  A    between atoms: _125  and  _128
REMARK   49  A    between atoms: _128  and  _129
REMARK   50  A    between atoms: _129  and  _130
REMARK   51  A    between atoms: _130  and  _131
REMARK   52  A    between atoms: _131  and  _132
REMARK   53  A    between atoms: _136  and  _138
REMARK   54  A    between atoms: _138  and  _139
REMARK   55  A    between atoms: _138  and  _141
REMARK   56  A    between atoms: _141  and  _142
REMARK   57  A    between atoms: _147  and  _149
REMARK   58  A    between atoms: _149  and  _150
REMARK   59  A    between atoms: _149  and  _152
REMARK   60  A    between atoms: _152  and  _153
REMARK   61  A    between atoms: _158  and  _160
REMARK   62  A    between atoms: _160  and  _161
REMARK   63  A    between atoms: _160  and  _163
REMARK   64  A    between atoms: _163  and  _164
REMARK   65  A    between atoms: _164  and  _165
REMARK   66  A    between atoms: _168  and  _170
REMARK   67  A    between atoms: _170  and  _171
REMARK   68  A    between atoms: _170  and  _173
REMARK   69  A    between atoms: _173  and  _174
REMARK   70  A    between atoms: _179  and  _180
REMARK   71  A    between atoms: _182  and  _184
REMARK   72  A    between atoms: _184  and  _185
REMARK   73  A    between atoms: _184  and  _187
REMARK   74  A    between atoms: _187  and  _188
REMARK   75  A    between atoms: _190  and  _192
REMARK   76  A    between atoms: _192  and  _193
REMARK   77  A    between atoms: _192  and  _195
REMARK   78  A    between atoms: _195  and  _196
REMARK   79  A    between atoms: _196  and  _197
REMARK   80  A    between atoms: _199  and  _201
REMARK   81  A    between atoms: _201  and  _202
REMARK   82  A    between atoms: _201  and  _204
REMARK   83  A    between atoms: _204  and  _205
REMARK   84  A    between atoms: _215  and  _217
REMARK   85  A    between atoms: _217  and  _218
REMARK   86  A    between atoms: _217  and  _220
REMARK   87  A    between atoms: _220  and  _221
REMARK   88  A    between atoms: _231  and  _233
REMARK   89  A    between atoms: _233  and  _234
REMARK   90  A    between atoms: _233  and  _236
REMARK   91  A    between atoms: _236  and  _237
REMARK   92  A    between atoms: _243  and  _245
REMARK   93  A    between atoms: _245  and  _246
REMARK   94  A    between atoms: _245  and  _248
REMARK   95  A    between atoms: _248  and  _249
REMARK   96  A    between atoms: _252  and  _254
REMARK   97  A    between atoms: _254  and  _255
REMARK   98  A    between atoms: _257  and  _259
REMARK   99  A    between atoms: _259  and  _260
REMARK  100  A    between atoms: _259  and  _262
REMARK  101  A    between atoms: _262  and  _263
REMARK  102  A    between atoms: _266  and  _268
REMARK  103  A    between atoms: _268  and  _269
REMARK  104  A    between atoms: _268  and  _271
REMARK  105  A    between atoms: _271  and  _272
REMARK  106  A    between atoms: _282  and  _284
REMARK  107  A    between atoms: _284  and  _285
REMARK  108  A    between atoms: _284  and  _287
REMARK  109  A    between atoms: _287  and  _288
REMARK  110  A    between atoms: _288  and  _289
REMARK  111  A    between atoms: _289  and  _290
REMARK  112  A    between atoms: _299  and  _301
REMARK  113  A    between atoms: _301  and  _302
REMARK  114  A    between atoms: _301  and  _304
REMARK  115  A    between atoms: _304  and  _305
REMARK  116  A    between atoms: _305  and  _306
REMARK  117  A    between atoms: _309  and  _311
REMARK  118  A    between atoms: _311  and  _312
REMARK  119  A    between atoms: _311  and  _314
REMARK  120  A    between atoms: _316  and  _318
REMARK  121  A    between atoms: _318  and  _319
REMARK  122  A    between atoms: _318  and  _321
REMARK  123  A    between atoms: _321  and  _322
REMARK  124  A    between atoms: _322  and  _323
REMARK  125  A    between atoms: _325  and  _327
REMARK  126  A    between atoms: _327  and  _328
REMARK  127  A    between atoms: _327  and  _330
REMARK  128  A    between atoms: _330  and  _331
REMARK  129  A    between atoms: _334  and  _336
REMARK  130  A    between atoms: _336  and  _337
REMARK  131  A    between atoms: _336  and  _339
REMARK  132  A    between atoms: _339  and  _340
REMARK  133  A    between atoms: _345  and  _347
REMARK  134  A    between atoms: _347  and  _348
REMARK  135  A    between atoms: _347  and  _350
REMARK  136  A    between atoms: _350  and  _351
REMARK  137  A    between atoms: _351  and  _352
REMARK  138  A    between atoms: _357  and  _359
REMARK  139  A    between atoms: _359  and  _360
REMARK  140  A    between atoms: _359  and  _362
REMARK  141  A    between atoms: _362  and  _363
REMARK  142  A    between atoms: _373  and  _375
REMARK  143  A    between atoms: _375  and  _376
REMARK  144  A    between atoms: _378  and  _380
REMARK  145  A    between atoms: _380  and  _381
REMARK  146  A    between atoms: _380  and  _383
REMARK  147  A    between atoms: _383  and  _384
REMARK                            x       y       z     vdW  Elec       q    Type
REMARK                         _______ _______ _______ _____ _____    ______ ____
ROOT
ATOM      1  CG  TYR A   1      -8.519  12.609  24.901  0.00  0.00    -0.020 A 
ATOM      2  CD2 TYR A   1      -8.119  11.322  25.308  0.00  0.00    -0.001 A 
ATOM      3  CE2 TYR A   1      -8.913  10.243  25.122  0.00  0.00    +0.036 A 
ATOM      4  CZ  TYR A   1     -10.161  10.390  24.603  0.00  0.00    +0.134 A 
ATOM      5  CE1 TYR A   1     -10.581  11.638  24.181  0.00  0.00    +0.036 A 
ATOM      6  CD1 TYR A   1      -9.764  12.745  24.330  0.00  0.00    -0.001 A 
ENDROOT
BRANCH   4   7
ATOM      7  OH  TYR A   1     -10.963   9.257  24.482  0.00  0.00    -0.506 OA
ATOM      8  HH  TYR A   1     -11.177   9.106  23.527  0.00  0.00    +0.292 HD
ENDBRANCH   4   7
BRANCH   1   9
ATOM      9  CB  TYR A   1      -7.598  13.781  25.055  0.00  0.00    +0.051 C 
BRANCH   9  10
ATOM     10  CA  TYR A   1      -6.566  13.928  23.925  0.00  0.00    +0.137 C 
BRANCH  10  11
ATOM     11  N   TYR A   1      -7.158  13.705  22.605  0.00  0.00    -0.239 NA
ATOM     12  H   TYR A   1      -8.183  13.541  22.545  0.00  0.00    +0.142 HD
ENDBRANCH  10  11
BRANCH  10  13
ATOM     13  C   TYR A   1      -5.327  13.079  24.199  0.00  0.00    +0.224 C 
ATOM     14  O   TYR A   1      -4.502  13.482  25.012  0.00  0.00    -0.287 OA
ENDBRANCH  10  13
ENDBRANCH   9  10
ENDBRANCH   1   9
TORSDOF 5
REMARK  Name = ../refined-set-2016/4j28/4j28_pocket.pdb
REMARK  147 active torsions:
REMARK  status: ('A' for Active; 'I' for Inactive)
REMARK    1  A    between atoms: _1  and  _3
REMARK    2  A    between atoms: _3  and  _4
REMARK    3  A    between atoms: _3  and  _6
REMARK    4  A    between atoms: _6  and  _7
REMARK    5  A    between atoms: _13  and  _15
REMARK    6  A    between atoms: _15  and  _16
REMARK    7  A    between atoms: _15  and  _18
REMARK    8  A    between atoms: _18  and  _19
REMARK    9  A    between atoms: _22  and  _24
REMARK   10  A    between atoms: _24  and  _25
REMARK   11  A    between atoms: _24  and  _27
REMARK   12  A    between atoms: _27  and  _28
REMARK   13  A    between atoms: _33  and  _35
REMARK   14  A    between atoms: _35  and  _36
REMARK   15  A    between atoms: _35  and  _38
REMARK   16  A    between atoms: _38  and  _39
REMARK   17  A    between atoms: _44  and  _45
REMARK   18  A    between atoms: _47  and  _49
REMARK   19  A    between atoms: _49  and  _50
REMARK   20  A    between atoms: _53  and  _55
REMARK   21  A    between atoms: _55  and  _56
REMARK   22  A    between atoms: _59  and  _61
REMARK   23  A    between atoms: _61  and  _62
REMARK   24  A    between atoms: _61  and  _64
REMARK   25  A    between atoms: _64  and  _65
REMARK   26  A    between atoms: _65  and  _66
REMARK   27  A    between atoms: _69  and  _71
REMARK   28  A    between atoms: _71  and  _72
REMARK   29  A    between atoms: _71  and  _74
REMARK   30  A    between atoms: _74  and  _75
REMARK   31  A    between atoms: _85  and  _87
REMARK   32  A    between atoms: _87  and  _88
REMARK   33  A    between atoms: _87  and  _90
REMARK   34  A    between atoms: _90  and  _91
REMARK   35  A    between atoms: _101  and  _103
REMARK   36  A    between atoms: _103  and  _104
REMARK   37  A    between atoms: _103  and  _106
REMARK   38  A    between atoms: _106  and  _107
REMARK   39  A    between atoms: _107  and  _108
REMARK   40  A    between atoms: _108  and  _109
REMARK   41  A    between atoms: _109  and  _110
REMARK   42  A    between atoms: _114  and  _116
REMARK   43  A    between atoms: _116  and  _117
REMARK   44  A    between atoms: _116  and  _119
REMARK   45  A    between atoms: _119  and  _120
REMARK   46  A    between atoms: _123  and  _125
REMARK   47  A    between atoms: _125  and  _126
REMARK   48  A    between atoms: _125  and  _128
REMARK   49  A    between atoms: _128  and  _129
REMARK   50  A    between atoms: _129  and  _130
REMARK   51  A    between atoms: _130  and  _131
REMARK   52  A    between atoms: _131  and  _132
REMARK   53  A    between atoms: _136  and  _138
REMARK   54  A    between atoms: _138  and  _139
REMARK   55  A    between atoms: _138  and  _141
REMARK   56  A    between atoms: _141  and  _142
REMARK   57  A    between atoms: _147  and  _149
REMARK   58  A    between atoms: _149  and  _150
REMARK   59  A    between atoms: _149  and  _152
REMARK   60  A    between atoms: _152  and  _153
REMARK   61  A    between atoms: _158  and  _160
REMARK   62  A    between atoms: _160  and  _161
REMARK   63  A    between atoms: _160  and  _163
REMARK   64  A    between atoms: _163  and  _164
REMARK   65  A    between atoms: _164  and  _165
REMARK   66  A    between atoms: _168  and  _170
REMARK   67  A    between atoms: _170  and  _171
REMARK   68  A    between atoms: _170  and  _173
REMARK   69  A    between atoms: _173  and  _174
REMARK   70  A    between atoms: _179  and  _180
REMARK   71  A    between atoms: _182  and  _184
REMARK   72  A    between atoms: _184  and  _185
REMARK   73  A    between atoms: _184  and  _187
REMARK   74  A    between atoms: _187  and  _188
REMARK   75  A    between atoms: _190  and  _192
REMARK   76  A    between atoms: _192  and  _193
REMARK   77  A    between atoms: _192  and  _195
REMARK   78  A    between atoms: _195  and  _196
REMARK   79  A    between atoms: _196  and  _197
REMARK   80  A    between atoms: _199  and  _201
REMARK   81  A    between atoms: _201  and  _202
REMARK   82  A    between atoms: _201  and  _204
REMARK   83  A    between atoms: _204  and  _205
REMARK   84  A    between atoms: _215  and  _217
REMARK   85  A    between atoms: _217  and  _218
REMARK   86  A    between atoms: _217  and  _220
REMARK   87  A    between atoms: _220  and  _221
REMARK   88  A    between atoms: _231  and  _233
REMARK   89  A    between atoms: _233  and  _234
REMARK   90  A    between atoms: _233  and  _236
REMARK   91  A    between atoms: _236  and  _237
REMARK   92  A    between atoms: _243  and  _245
REMARK   93  A    between atoms: _245  and  _246
REMARK   94  A    between atoms: _245  and  _248
REMARK   95  A    between atoms: _248  and  _249
REMARK   96  A    between atoms: _252  and  _254
REMARK   97  A    between atoms: _254  and  _255
REMARK   98  A    between atoms: _257  and  _259
REMARK   99  A    between atoms: _259  and  _260
REMARK  100  A    between atoms: _259  and  _262
REMARK  101  A    between atoms: _262  and  _263
REMARK  102  A    between atoms: _266  and  _268
REMARK  103  A    between atoms: _268  and  _269
REMARK  104  A    between atoms: _268  and  _271
REMARK  105  A    between atoms: _271  and  _272
REMARK  106  A    between atoms: _282  and  _284
REMARK  107  A    between atoms: _284  and  _285
REMARK  108  A    between atoms: _284  and  _287
REMARK  109  A    between atoms: _287  and  _288
REMARK  110  A    between atoms: _288  and  _289
REMARK  111  A    between atoms: _289  and  _290
REMARK  112  A    between atoms: _299  and  _301
REMARK  113  A    between atoms: _301  and  _302
REMARK  114  A    between atoms: _301  and  _304
REMARK  115  A    between atoms: _304  and  _305
REMARK  116  A    between atoms: _305  and  _306
REMARK  117  A    between atoms: _309  and  _311
REMARK  118  A    between atoms: _311  and  _312
REMARK  119  A    between atoms: _311  and  _314
REMARK  120  A    between atoms: _316  and  _318
REMARK  121  A    between atoms: _318  and  _319
REMARK  122  A    between atoms: _318  and  _321
REMARK  123  A    between atoms: _321  and  _322
REMARK  124  A    between atoms: _322  and  _323
REMARK  125  A    between atoms: _325  and  _327
REMARK  126  A    between atoms: _327  and  _328
REMARK  127  A    between atoms: _327  and  _330
REMARK  128  A    between atoms: _330  and  _331
REMARK  129  A    between atoms: _334  and  _336
REMARK  130  A    between atoms: _336  and  _337
REMARK  131  A    between atoms: _336  and  _339
REMARK  132  A    between atoms: _339  and  _340
REMARK  133  A    between atoms: _345  and  _347
REMARK  134  A    between atoms: _347  and  _348
REMARK  135  A    between atoms: _347  and  _350
REMARK  136  A    between atoms: _350  and  _351
REMARK  137  A    between atoms: _351  and  _352
REMARK  138  A    between atoms: _357  and  _359
REMARK  139  A    between atoms: _359  and  _360
REMARK  140  A    between atoms: _359  and  _362
REMARK  141  A    between atoms: _362  and  _363
REMARK  142  A    between atoms: _373  and  _375
REMARK  143  A    between atoms: _375  and  _376
REMARK  144  A    between atoms: _378  and  _380
REMARK  145  A    between atoms: _380  and  _381
REMARK  146  A    between atoms: _380  and  _383
REMARK  147  A    between atoms: _383  and  _384
REMARK                            x       y       z     vdW  Elec       q    Type
REMARK                         _______ _______ _______ _____ _____    ______ ____
ROOT
ATOM      1  CA  GLU A   3      -9.665  13.729  28.067  0.00  0.00    +0.149 C 
ENDROOT
BRANCH   1   3
ATOM      2  C   ALA A   2      -7.619  14.431  29.144  0.00  0.00    +0.241 C 
ATOM      3  N   GLU A   3      -8.697  13.664  29.149  0.00  0.00    -0.297 N 
ATOM      4  H   GLU A   3      -8.854  13.005  29.938  0.00  0.00    +0.150 HD
ATOM      5  O   ALA A   2      -7.405  15.274  28.268  0.00  0.00    -0.273 OA
BRANCH   2   6
ATOM      6  CA  ALA A   2      -6.666  14.239  30.300  0.00  0.00    +0.149 C 
ATOM      7  CB  ALA A   2      -5.653  13.202  29.951  0.00  0.00    +0.031 C 
BRANCH   6   9
ATOM      8  C   ALA A   1      -8.259  14.661  32.140  0.00  0.00    +0.238 C 
ATOM      9  N   ALA A   2      -7.294  13.918  31.614  0.00  0.00    -0.297 N 
ATOM     10  H   ALA A   2      -6.964  13.082  32.137  0.00  0.00    +0.150 HD
ATOM     11  O   ALA A   1      -8.682  15.682  31.593  0.00  0.00    -0.274 OA
BRANCH   8  12
ATOM     12  CA  ALA A   1      -8.736  14.275  33.530  0.00  0.00    +0.145 C 
ATOM     13  CB  ALA A   1     -10.176  13.762  33.503  0.00  0.00    +0.028 C 
BRANCH  12  14
ATOM     14  N   ALA A   1      -8.642  15.439  34.414  0.00  0.00    -0.238 NA
ATOM     15  H   ALA A   1      -9.507  15.791  34.872  0.00  0.00    +0.142 HD
ENDBRANCH  12  14
ENDBRANCH   8  12
ENDBRANCH   6   9
ENDBRANCH   2   6
ENDBRANCH   1   3
BRANCH   1  16
ATOM     16  C   GLU A   3     -10.479  15.018  28.093  0.00  0.00    +0.241 C 
ATOM     17  N   TRP A   4     -10.382  15.768  29.197  0.00  0.00    -0.298 N 
ATOM     18  H   TRP A   4      -9.838  15.375  29.992  0.00  0.00    +0.150 HD
ATOM     19  O   GLU A   3     -11.181  15.303  27.129  0.00  0.00    -0.273 OA
BRANCH  17  20
ATOM     20  CA  TRP A   4     -10.977  17.098  29.384  0.00  0.00    +0.141 C 
BRANCH  20  21
ATOM     21  C   TRP A   4      -9.983  18.255  29.216  0.00  0.00    +0.227 C 
ATOM     22  O   TRP A   4     -10.299  19.400  29.566  0.00  0.00    -0.286 OA
ENDBRANCH  20  21
BRANCH  20  23
ATOM     23  CB  TRP A   4     -11.604  17.200  30.787  0.00  0.00    +0.056 C 
BRANCH  23  24
ATOM     24  CG  TRP A   4     -12.986  16.644  30.869  0.00  0.00    -0.002 A 
ATOM     25  CD2 TRP A   4     -14.180  17.400  30.947  0.00  0.00    +0.013 A 
ATOM     26  CE2 TRP A   4     -15.260  16.482  30.978  0.00  0.00    +0.056 A 
ATOM     27  CZ2 TRP A   4     -16.583  16.897  31.006  0.00  0.00    +0.017 A 
ATOM     28  CH2 TRP A   4     -16.814  18.252  31.054  0.00  0.00    +0.001 A 
ATOM     29  CZ3 TRP A   4     -15.769  19.185  31.012  0.00  0.00    +0.000 A 
ATOM     30  NE1 TRP A   4     -14.741  15.217  30.967  0.00  0.00    -0.352 N 
ATOM     31  HE1 TRP A   4     -15.289  14.334  31.000  0.00  0.00    +0.166 HD
ATOM     32  CE3 TRP A   4     -14.461  18.784  30.948  0.00  0.00    +0.001 A 
ATOM     33  CD1 TRP A   4     -13.361  15.313  30.904  0.00  0.00    +0.068 A 
ENDBRANCH  23  24
ENDBRANCH  20  23
ENDBRANCH  17  20
ENDBRANCH   1  16
BRANCH   1  34
ATOM     34  CB  GLU A   3     -10.558  12.485  27.998  0.00  0.00    +0.041 C 
BRANCH  34  35
ATOM     35  CG  GLU A   3     -11.589  12.339  29.099  0.00  0.00    +0.116 C 
BRANCH  35  36
ATOM     36  CD  GLU A   3     -11.062  11.885  30.460  0.00  0.00    +0.365 C 
ATOM     37  OE2 GLU A   3     -11.908  11.864  31.360  0.00  0.00    -0.246 OA
ATOM     38  OE1 GLU A   3      -9.859  11.535  30.628  0.00  0.00    -0.246 OA
ENDBRANCH  35  36
ENDBRANCH  34  35
ENDBRANCH   1  34
TORSDOF 13
REMARK  Name = ../refined-set-2016/4j28/4j28_pocket.pdb
REMARK  147 active torsions:
REMARK  status: ('A' for Active; 'I' for Inactive)
REMARK    1  A    between atoms: _1  and  _3
REMARK    2  A    between atoms: _3  and  _4
REMARK    3  A    between atoms: _3  and  _6
REMARK    4  A    between atoms: _6  and  _7
REMARK    5  A    between atoms: _13  and  _15
REMARK    6  A    between atoms: _15  and  _16
REMARK    7  A    between atoms: _15  and  _18
REMARK    8  A    between atoms: _18  and  _19
REMARK    9  A    between atoms: _22  and  _24
REMARK   10  A    between atoms: _24  and  _25
REMARK   11  A    between atoms: _24  and  _27
REMARK   12  A    between atoms: _27  and  _28
REMARK   13  A    between atoms: _33  and  _35
REMARK   14  A    between atoms: _35  and  _36
REMARK   15  A    between atoms: _35  and  _38
REMARK   16  A    between atoms: _38  and  _39
REMARK   17  A    between atoms: _44  and  _45
REMARK   18  A    between atoms: _47  and  _49
REMARK   19  A    between atoms: _49  and  _50
REMARK   20  A    between atoms: _53  and  _55
REMARK   21  A    between atoms: _55  and  _56
REMARK   22  A    between atoms: _59  and  _61
REMARK   23  A    between atoms: _61  and  _62
REMARK   24  A    between atoms: _61  and  _64
REMARK   25  A    between atoms: _64  and  _65
REMARK   26  A    between atoms: _65  and  _66
REMARK   27  A    between atoms: _69  and  _71
REMARK   28  A    between atoms: _71  and  _72
REMARK   29  A    between atoms: _71  and  _74
REMARK   30  A    between atoms: _74  and  _75
REMARK   31  A    between atoms: _85  and  _87
REMARK   32  A    between atoms: _87  and  _88
REMARK   33  A    between atoms: _87  and  _90
REMARK   34  A    between atoms: _90  and  _91
REMARK   35  A    between atoms: _101  and  _103
REMARK   36  A    between atoms: _103  and  _104
REMARK   37  A    between atoms: _103  and  _106
REMARK   38  A    between atoms: _106  and  _107
REMARK   39  A    between atoms: _107  and  _108
REMARK   40  A    between atoms: _108  and  _109
REMARK   41  A    between atoms: _109  and  _110
REMARK   42  A    between atoms: _114  and  _116
REMARK   43  A    between atoms: _116  and  _117
REMARK   44  A    between atoms: _116  and  _119
REMARK   45  A    between atoms: _119  and  _120
REMARK   46  A    between atoms: _123  and  _125
REMARK   47  A    between atoms: _125  and  _126
REMARK   48  A    between atoms: _125  and  _128
REMARK   49  A    between atoms: _128  and  _129
REMARK   50  A    between atoms: _129  and  _130
REMARK   51  A    between atoms: _130  and  _131
REMARK   52  A    between atoms: _131  and  _132
REMARK   53  A    between atoms: _136  and  _138
REMARK   54  A    between atoms: _138  and  _139
REMARK   55  A    between atoms: _138  and  _141
REMARK   56  A    between atoms: _141  and  _142
REMARK   57  A    between atoms: _147  and  _149
REMARK   58  A    between atoms: _149  and  _150
REMARK   59  A    between atoms: _149  and  _152
REMARK   60  A    between atoms: _152  and  _153
REMARK   61  A    between atoms: _158  and  _160
REMARK   62  A    between atoms: _160  and  _161
REMARK   63  A    between atoms: _160  and  _163
REMARK   64  A    between atoms: _163  and  _164
REMARK   65  A    between atoms: _164  and  _165
REMARK   66  A    between atoms: _168  and  _170
REMARK   67  A    between atoms: _170  and  _171
REMARK   68  A    between atoms: _170  and  _173
REMARK   69  A    between atoms: _173  and  _174
REMARK   70  A    between atoms: _179  and  _180
REMARK   71  A    between atoms: _182  and  _184
REMARK   72  A    between atoms: _184  and  _185
REMARK   73  A    between atoms: _184  and  _187
REMARK   74  A    between atoms: _187  and  _188
REMARK   75  A    between atoms: _190  and  _192
REMARK   76  A    between atoms: _192  and  _193
REMARK   77  A    between atoms: _192  and  _195
REMARK   78  A    between atoms: _195  and  _196
REMARK   79  A    between atoms: _196  and  _197
REMARK   80  A    between atoms: _199  and  _201
REMARK   81  A    between atoms: _201  and  _202
REMARK   82  A    between atoms: _201  and  _204
REMARK   83  A    between atoms: _204  and  _205
REMARK   84  A    between atoms: _215  and  _217
REMARK   85  A    between atoms: _217  and  _218
REMARK   86  A    between atoms: _217  and  _220
REMARK   87  A    between atoms: _220  and  _221
REMARK   88  A    between atoms: _231  and  _233
REMARK   89  A    between atoms: _233  and  _234
REMARK   90  A    between atoms: _233  and  _236
REMARK   91  A    between atoms: _236  and  _237
REMARK   92  A    between atoms: _243  and  _245
REMARK   93  A    between atoms: _245  and  _246
REMARK   94  A    between atoms: _245  and  _248
REMARK   95  A    between atoms: _248  and  _249
REMARK   96  A    between atoms: _252  and  _254
REMARK   97  A    between atoms: _254  and  _255
REMARK   98  A    between atoms: _257  and  _259
REMARK   99  A    between atoms: _259  and  _260
REMARK  100  A    between atoms: _259  and  _262
REMARK  101  A    between atoms: _262  and  _263
REMARK  102  A    between atoms: _266  and  _268
REMARK  103  A    between atoms: _268  and  _269
REMARK  104  A    between atoms: _268  and  _271
REMARK  105  A    between atoms: _271  and  _272
REMARK  106  A    between atoms: _282  and  _284
REMARK  107  A    between atoms: _284  and  _285
REMARK  108  A    between atoms: _284  and  _287
REMARK  109  A    between atoms: _287  and  _288
REMARK  110  A    between atoms: _288  and  _289
REMARK  111  A    between atoms: _289  and  _290
REMARK  112  A    between atoms: _299  and  _301
REMARK  113  A    between atoms: _301  and  _302
REMARK  114  A    between atoms: _301  and  _304
REMARK  115  A    between atoms: _304  and  _305
REMARK  116  A    between atoms: _305  and  _306
REMARK  117  A    between atoms: _309  and  _311
REMARK  118  A    between atoms: _311  and  _312
REMARK  119  A    between atoms: _311  and  _314
REMARK  120  A    between atoms: _316  and  _318
REMARK  121  A    between atoms: _318  and  _319
REMARK  122  A    between atoms: _318  and  _321
REMARK  123  A    between atoms: _321  and  _322
REMARK  124  A    between atoms: _322  and  _323
REMARK  125  A    between atoms: _325  and  _327
REMARK  126  A    between atoms: _327  and  _328
REMARK  127  A    between atoms: _327  and  _330
REMARK  128  A    between atoms: _330  and  _331
REMARK  129  A    between atoms: _334  and  _336
REMARK  130  A    between atoms: _336  and  _337
REMARK  131  A    between atoms: _336  and  _339
REMARK  132  A    between atoms: _339  and  _340
REMARK  133  A    between atoms: _345  and  _347
REMARK  134  A    between atoms: _347  and  _348
REMARK  135  A    between atoms: _347  and  _350
REMARK  136  A    between atoms: _350  and  _351
REMARK  137  A    between atoms: _351  and  _352
REMARK  138  A    between atoms: _357  and  _359
REMARK  139  A    between atoms: _359  and  _360
REMARK  140  A    between atoms: _359  and  _362
REMARK  141  A    between atoms: _362  and  _363
REMARK  142  A    between atoms: _373  and  _375
REMARK  143  A    between atoms: _375  and  _376
REMARK  144  A    between atoms: _378  and  _380
REMARK  145  A    between atoms: _380  and  _381
REMARK  146  A    between atoms: _380  and  _383
REMARK  147  A    between atoms: _383  and  _384
REMARK                            x       y       z     vdW  Elec       q    Type
REMARK                         _______ _______ _______ _____ _____    ______ ____
ROOT
ATOM      1  CG  TRP A   1      -8.428  20.552  32.329  0.00  0.00    -0.002 A 
ATOM      2  CD2 TRP A   1      -9.664  20.406  33.022  0.00  0.00    +0.013 A 
ATOM      3  CE3 TRP A   1     -10.596  21.310  33.566  0.00  0.00    +0.001 A 
ATOM      4  CZ3 TRP A   1     -11.697  20.806  34.200  0.00  0.00    +0.000 A 
ATOM      5  CH2 TRP A   1     -11.891  19.395  34.343  0.00  0.00    +0.001 A 
ATOM      6  CZ2 TRP A   1     -11.005  18.501  33.829  0.00  0.00    +0.017 A 
ATOM      7  CE2 TRP A   1      -9.873  19.015  33.199  0.00  0.00    +0.056 A 
ATOM      8  NE1 TRP A   1      -8.821  18.360  32.626  0.00  0.00    -0.352 N 
ATOM      9  HE1 TRP A   1      -8.689  17.329  32.599  0.00  0.00    +0.166 HD
ATOM     10  CD1 TRP A   1      -7.972  19.286  32.095  0.00  0.00    +0.068 A 
ENDROOT
BRANCH   1  11
ATOM     11  CB  TRP A   1      -7.777  21.807  31.908  0.00  0.00    +0.053 C 
BRANCH  11  12
ATOM     12  CA  TRP A   1      -8.726  22.877  31.322  0.00  0.00    +0.137 C 
BRANCH  12  13
ATOM     13  N   TRP A   1      -9.718  22.333  30.372  0.00  0.00    -0.239 NA
ATOM     14  H   TRP A   1      -9.734  21.312  30.172  0.00  0.00    +0.142 HD
ENDBRANCH  12  13
BRANCH  12  15
ATOM     15  C   TRP A   1      -7.823  23.951  30.701  0.00  0.00    +0.224 C 
ATOM     16  O   TRP A   1      -7.530  24.942  31.344  0.00  0.00    -0.287 OA
ENDBRANCH  12  15
ENDBRANCH  11  12
ENDBRANCH   1  11
TORSDOF 4
REMARK  Name = ../refined-set-2016/4j28/4j28_pocket.pdb
REMARK  147 active torsions:
REMARK  status: ('A' for Active; 'I' for Inactive)
REMARK    1  A    between atoms: _1  and  _3
REMARK    2  A    between atoms: _3  and  _4
REMARK    3  A    between atoms: _3  and  _6
REMARK    4  A    between atoms: _6  and  _7
REMARK    5  A    between atoms: _13  and  _15
REMARK    6  A    between atoms: _15  and  _16
REMARK    7  A    between atoms: _15  and  _18
REMARK    8  A    between atoms: _18  and  _19
REMARK    9  A    between atoms: _22  and  _24
REMARK   10  A    between atoms: _24  and  _25
REMARK   11  A    between atoms: _24  and  _27
REMARK   12  A    between atoms: _27  and  _28
REMARK   13  A    between atoms: _33  and  _35
REMARK   14  A    between atoms: _35  and  _36
REMARK   15  A    between atoms: _35  and  _38
REMARK   16  A    between atoms: _38  and  _39
REMARK   17  A    between atoms: _44  and  _45
REMARK   18  A    between atoms: _47  and  _49
REMARK   19  A    between atoms: _49  and  _50
REMARK   20  A    between atoms: _53  and  _55
REMARK   21  A    between atoms: _55  and  _56
REMARK   22  A    between atoms: _59  and  _61
REMARK   23  A    between atoms: _61  and  _62
REMARK   24  A    between atoms: _61  and  _64
REMARK   25  A    between atoms: _64  and  _65
REMARK   26  A    between atoms: _65  and  _66
REMARK   27  A    between atoms: _69  and  _71
REMARK   28  A    between atoms: _71  and  _72
REMARK   29  A    between atoms: _71  and  _74
REMARK   30  A    between atoms: _74  and  _75
REMARK   31  A    between atoms: _85  and  _87
REMARK   32  A    between atoms: _87  and  _88
REMARK   33  A    between atoms: _87  and  _90
REMARK   34  A    between atoms: _90  and  _91
REMARK   35  A    between atoms: _101  and  _103
REMARK   36  A    between atoms: _103  and  _104
REMARK   37  A    between atoms: _103  and  _106
REMARK   38  A    between atoms: _106  and  _107
REMARK   39  A    between atoms: _107  and  _108
REMARK   40  A    between atoms: _108  and  _109
REMARK   41  A    between atoms: _109  and  _110
REMARK   42  A    between atoms: _114  and  _116
REMARK   43  A    between atoms: _116  and  _117
REMARK   44  A    between atoms: _116  and  _119
REMARK   45  A    between atoms: _119  and  _120
REMARK   46  A    between atoms: _123  and  _125
REMARK   47  A    between atoms: _125  and  _126
REMARK   48  A    between atoms: _125  and  _128
REMARK   49  A    between atoms: _128  and  _129
REMARK   50  A    between atoms: _129  and  _130
REMARK   51  A    between atoms: _130  and  _131
REMARK   52  A    between atoms: _131  and  _132
REMARK   53  A    between atoms: _136  and  _138
REMARK   54  A    between atoms: _138  and  _139
REMARK   55  A    between atoms: _138  and  _141
REMARK   56  A    between atoms: _141  and  _142
REMARK   57  A    between atoms: _147  and  _149
REMARK   58  A    between atoms: _149  and  _150
REMARK   59  A    between atoms: _149  and  _152
REMARK   60  A    between atoms: _152  and  _153
REMARK   61  A    between atoms: _158  and  _160
REMARK   62  A    between atoms: _160  and  _161
REMARK   63  A    between atoms: _160  and  _163
REMARK   64  A    between atoms: _163  and  _164
REMARK   65  A    between atoms: _164  and  _165
REMARK   66  A    between atoms: _168  and  _170
REMARK   67  A    between atoms: _170  and  _171
REMARK   68  A    between atoms: _170  and  _173
REMARK   69  A    between atoms: _173  and  _174
REMARK   70  A    between atoms: _179  and  _180
REMARK   71  A    between atoms: _182  and  _184
REMARK   72  A    between atoms: _184  and  _185
REMARK   73  A    between atoms: _184  and  _187
REMARK   74  A    between atoms: _187  and  _188
REMARK   75  A    between atoms: _190  and  _192
REMARK   76  A    between atoms: _192  and  _193
REMARK   77  A    between atoms: _192  and  _195
REMARK   78  A    between atoms: _195  and  _196
REMARK   79  A    between atoms: _196  and  _197
REMARK   80  A    between atoms: _199  and  _201
REMARK   81  A    between atoms: _201  and  _202
REMARK   82  A    between atoms: _201  and  _204
REMARK   83  A    between atoms: _204  and  _205
REMARK   84  A    between atoms: _215  and  _217
REMARK   85  A    between atoms: _217  and  _218
REMARK   86  A    between atoms: _217  and  _220
REMARK   87  A    between atoms: _220  and  _221
REMARK   88  A    between atoms: _231  and  _233
REMARK   89  A    between atoms: _233  and  _234
REMARK   90  A    between atoms: _233  and  _236
REMARK   91  A    between atoms: _236  and  _237
REMARK   92  A    between atoms: _243  and  _245
REMARK   93  A    between atoms: _245  and  _246
REMARK   94  A    between atoms: _245  and  _248
REMARK   95  A    between atoms: _248  and  _249
REMARK   96  A    between atoms: _252  and  _254
REMARK   97  A    between atoms: _254  and  _255
REMARK   98  A    between atoms: _257  and  _259
REMARK   99  A    between atoms: _259  and  _260
REMARK  100  A    between atoms: _259  and  _262
REMARK  101  A    between atoms: _262  and  _263
REMARK  102  A    between atoms: _266  and  _268
REMARK  103  A    between atoms: _268  and  _269
REMARK  104  A    between atoms: _268  and  _271
REMARK  105  A    between atoms: _271  and  _272
REMARK  106  A    between atoms: _282  and  _284
REMARK  107  A    between atoms: _284  and  _285
REMARK  108  A    between atoms: _284  and  _287
REMARK  109  A    between atoms: _287  and  _288
REMARK  110  A    between atoms: _288  and  _289
REMARK  111  A    between atoms: _289  and  _290
REMARK  112  A    between atoms: _299  and  _301
REMARK  113  A    between atoms: _301  and  _302
REMARK  114  A    between atoms: _301  and  _304
REMARK  115  A    between atoms: _304  and  _305
REMARK  116  A    between atoms: _305  and  _306
REMARK  117  A    between atoms: _309  and  _311
REMARK  118  A    between atoms: _311  and  _312
REMARK  119  A    between atoms: _311  and  _314
REMARK  120  A    between atoms: _316  and  _318
REMARK  121  A    between atoms: _318  and  _319
REMARK  122  A    between atoms: _318  and  _321
REMARK  123  A    between atoms: _321  and  _322
REMARK  124  A    between atoms: _322  and  _323
REMARK  125  A    between atoms: _325  and  _327
REMARK  126  A    between atoms: _327  and  _328
REMARK  127  A    between atoms: _327  and  _330
REMARK  128  A    between atoms: _330  and  _331
REMARK  129  A    between atoms: _334  and  _336
REMARK  130  A    between atoms: _336  and  _337
REMARK  131  A    between atoms: _336  and  _339
REMARK  132  A    between atoms: _339  and  _340
REMARK  133  A    between atoms: _345  and  _347
REMARK  134  A    between atoms: _347  and  _348
REMARK  135  A    between atoms: _347  and  _350
REMARK  136  A    between atoms: _350  and  _351
REMARK  137  A    between atoms: _351  and  _352
REMARK  138  A    between atoms: _357  and  _359
REMARK  139  A    between atoms: _359  and  _360
REMARK  140  A    between atoms: _359  and  _362
REMARK  141  A    between atoms: _362  and  _363
REMARK  142  A    between atoms: _373  and  _375
REMARK  143  A    between atoms: _375  and  _376
REMARK  144  A    between atoms: _378  and  _380
REMARK  145  A    between atoms: _380  and  _381
REMARK  146  A    between atoms: _380  and  _383
REMARK  147  A    between atoms: _383  and  _384
REMARK                            x       y       z     vdW  Elec       q    Type
REMARK                         _______ _______ _______ _____ _____    ______ ____
ROOT
ATOM      1  CG  LYS A   1     -17.704  -1.287  27.794  0.00  0.00    -0.000 C 
ENDROOT
BRANCH   1   2
ATOM      2  CB  LYS A   1     -17.054  -0.218  26.897  0.00  0.00    +0.025 C 
BRANCH   2   3
ATOM      3  CA  LYS A   1     -16.394  -0.783  25.601  0.00  0.00    +0.133 C 
BRANCH   3   4
ATOM      4  N   LYS A   1     -15.647  -1.985  25.862  0.00  0.00    -0.239 NA
ATOM      5  H   LYS A   1     -15.075  -2.023  26.729  0.00  0.00    +0.142 HD
ENDBRANCH   3   4
BRANCH   3   6
ATOM      6  C   LYS A   1     -15.422   0.209  25.030  0.00  0.00    +0.224 C 
ATOM      7  O   LYS A   1     -14.364   0.453  25.622  0.00  0.00    -0.287 OA
ENDBRANCH   3   6
ENDBRANCH   2   3
ENDBRANCH   1   2
BRANCH   1   8
ATOM      8  CD  LYS A   1     -18.613  -0.669  28.903  0.00  0.00    -0.024 C 
BRANCH   8   9
ATOM      9  CE  LYS A   1     -19.913  -0.100  28.339  0.00  0.00    -0.086 C 
BRANCH   9  10
ATOM     10  NZ  LYS A   1     -21.034  -1.064  28.520  0.00  0.00    +0.380 N 
ATOM     11  HZ1 LYS A   1     -21.163  -1.257  29.534  0.00  0.00    -0.089 HD
ATOM     12  HZ2 LYS A   1     -21.907  -0.656  28.129  0.00  0.00    -0.089 HD
ATOM     13  HZ3 LYS A   1     -20.811  -1.950  28.023  0.00  0.00    -0.089 HD
ENDBRANCH   9  10
ENDBRANCH   8   9
ENDBRANCH   1   8
TORSDOF 7
REMARK  Name = ../refined-set-2016/4j28/4j28_pocket.pdb
REMARK  147 active torsions:
REMARK  status: ('A' for Active; 'I' for Inactive)
REMARK    1  A    between atoms: _1  and  _3
REMARK    2  A    between atoms: _3  and  _4
REMARK    3  A    between atoms: _3  and  _6
REMARK    4  A    between atoms: _6  and  _7
REMARK    5  A    between atoms: _13  and  _15
REMARK    6  A    between atoms: _15  and  _16
REMARK    7  A    between atoms: _15  and  _18
REMARK    8  A    between atoms: _18  and  _19
REMARK    9  A    between atoms: _22  and  _24
REMARK   10  A    between atoms: _24  and  _25
REMARK   11  A    between atoms: _24  and  _27
REMARK   12  A    between atoms: _27  and  _28
REMARK   13  A    between atoms: _33  and  _35
REMARK   14  A    between atoms: _35  and  _36
REMARK   15  A    between atoms: _35  and  _38
REMARK   16  A    between atoms: _38  and  _39
REMARK   17  A    between atoms: _44  and  _45
REMARK   18  A    between atoms: _47  and  _49
REMARK   19  A    between atoms: _49  and  _50
REMARK   20  A    between atoms: _53  and  _55
REMARK   21  A    between atoms: _55  and  _56
REMARK   22  A    between atoms: _59  and  _61
REMARK   23  A    between atoms: _61  and  _62
REMARK   24  A    between atoms: _61  and  _64
REMARK   25  A    between atoms: _64  and  _65
REMARK   26  A    between atoms: _65  and  _66
REMARK   27  A    between atoms: _69  and  _71
REMARK   28  A    between atoms: _71  and  _72
REMARK   29  A    between atoms: _71  and  _74
REMARK   30  A    between atoms: _74  and  _75
REMARK   31  A    between atoms: _85  and  _87
REMARK   32  A    between atoms: _87  and  _88
REMARK   33  A    between atoms: _87  and  _90
REMARK   34  A    between atoms: _90  and  _91
REMARK   35  A    between atoms: _101  and  _103
REMARK   36  A    between atoms: _103  and  _104
REMARK   37  A    between atoms: _103  and  _106
REMARK   38  A    between atoms: _106  and  _107
REMARK   39  A    between atoms: _107  and  _108
REMARK   40  A    between atoms: _108  and  _109
REMARK   41  A    between atoms: _109  and  _110
REMARK   42  A    between atoms: _114  and  _116
REMARK   43  A    between atoms: _116  and  _117
REMARK   44  A    between atoms: _116  and  _119
REMARK   45  A    between atoms: _119  and  _120
REMARK   46  A    between atoms: _123  and  _125
REMARK   47  A    between atoms: _125  and  _126
REMARK   48  A    between atoms: _125  and  _128
REMARK   49  A    between atoms: _128  and  _129
REMARK   50  A    between atoms: _129  and  _130
REMARK   51  A    between atoms: _130  and  _131
REMARK   52  A    between atoms: _131  and  _132
REMARK   53  A    between atoms: _136  and  _138
REMARK   54  A    between atoms: _138  and  _139
REMARK   55  A    between atoms: _138  and  _141
REMARK   56  A    between atoms: _141  and  _142
REMARK   57  A    between atoms: _147  and  _149
REMARK   58  A    between atoms: _149  and  _150
REMARK   59  A    between atoms: _149  and  _152
REMARK   60  A    between atoms: _152  and  _153
REMARK   61  A    between atoms: _158  and  _160
REMARK   62  A    between atoms: _160  and  _161
REMARK   63  A    between atoms: _160  and  _163
REMARK   64  A    between atoms: _163  and  _164
REMARK   65  A    between atoms: _164  and  _165
REMARK   66  A    between atoms: _168  and  _170
REMARK   67  A    between atoms: _170  and  _171
REMARK   68  A    between atoms: _170  and  _173
REMARK   69  A    between atoms: _173  and  _174
REMARK   70  A    between atoms: _179  and  _180
REMARK   71  A    between atoms: _182  and  _184
REMARK   72  A    between atoms: _184  and  _185
REMARK   73  A    between atoms: _184  and  _187
REMARK   74  A    between atoms: _187  and  _188
REMARK   75  A    between atoms: _190  and  _192
REMARK   76  A    between atoms: _192  and  _193
REMARK   77  A    between atoms: _192  and  _195
REMARK   78  A    between atoms: _195  and  _196
REMARK   79  A    between atoms: _196  and  _197
REMARK   80  A    between atoms: _199  and  _201
REMARK   81  A    between atoms: _201  and  _202
REMARK   82  A    between atoms: _201  and  _204
REMARK   83  A    between atoms: _204  and  _205
REMARK   84  A    between atoms: _215  and  _217
REMARK   85  A    between atoms: _217  and  _218
REMARK   86  A    between atoms: _217  and  _220
REMARK   87  A    between atoms: _220  and  _221
REMARK   88  A    between atoms: _231  and  _233
REMARK   89  A    between atoms: _233  and  _234
REMARK   90  A    between atoms: _233  and  _236
REMARK   91  A    between atoms: _236  and  _237
REMARK   92  A    between atoms: _243  and  _245
REMARK   93  A    between atoms: _245  and  _246
REMARK   94  A    between atoms: _245  and  _248
REMARK   95  A    between atoms: _248  and  _249
REMARK   96  A    between atoms: _252  and  _254
REMARK   97  A    between atoms: _254  and  _255
REMARK   98  A    between atoms: _257  and  _259
REMARK   99  A    between atoms: _259  and  _260
REMARK  100  A    between atoms: _259  and  _262
REMARK  101  A    between atoms: _262  and  _263
REMARK  102  A    between atoms: _266  and  _268
REMARK  103  A    between atoms: _268  and  _269
REMARK  104  A    between atoms: _268  and  _271
REMARK  105  A    between atoms: _271  and  _272
REMARK  106  A    between atoms: _282  and  _284
REMARK  107  A    between atoms: _284  and  _285
REMARK  108  A    between atoms: _284  and  _287
REMARK  109  A    between atoms: _287  and  _288
REMARK  110  A    between atoms: _288  and  _289
REMARK  111  A    between atoms: _289  and  _290
REMARK  112  A    between atoms: _299  and  _301
REMARK  113  A    between atoms: _301  and  _302
REMARK  114  A    between atoms: _301  and  _304
REMARK  115  A    between atoms: _304  and  _305
REMARK  116  A    between atoms: _305  and  _306
REMARK  117  A    between atoms: _309  and  _311
REMARK  118  A    between atoms: _311  and  _312
REMARK  119  A    between atoms: _311  and  _314
REMARK  120  A    between atoms: _316  and  _318
REMARK  121  A    between atoms: _318  and  _319
REMARK  122  A    between atoms: _318  and  _321
REMARK  123  A    between atoms: _321  and  _322
REMARK  124  A    between atoms: _322  and  _323
REMARK  125  A    between atoms: _325  and  _327
REMARK  126  A    between atoms: _327  and  _328
REMARK  127  A    between atoms: _327  and  _330
REMARK  128  A    between atoms: _330  and  _331
REMARK  129  A    between atoms: _334  and  _336
REMARK  130  A    between atoms: _336  and  _337
REMARK  131  A    between atoms: _336  and  _339
REMARK  132  A    between atoms: _339  and  _340
REMARK  133  A    between atoms: _345  and  _347
REMARK  134  A    between atoms: _347  and  _348
REMARK  135  A    between atoms: _347  and  _350
REMARK  136  A    between atoms: _350  and  _351
REMARK  137  A    between atoms: _351  and  _352
REMARK  138  A    between atoms: _357  and  _359
REMARK  139  A    between atoms: _359  and  _360
REMARK  140  A    between atoms: _359  and  _362
REMARK  141  A    between atoms: _362  and  _363
REMARK  142  A    between atoms: _373  and  _375
REMARK  143  A    between atoms: _375  and  _376
REMARK  144  A    between atoms: _378  and  _380
REMARK  145  A    between atoms: _380  and  _381
REMARK  146  A    between atoms: _380  and  _383
REMARK  147  A    between atoms: _383  and  _384
REMARK                            x       y       z     vdW  Elec       q    Type
REMARK                         _______ _______ _______ _____ _____    ______ ____
ROOT
ATOM      1  CA  THR A   1     -15.108   5.512  22.930  0.00  0.00    +0.160 C 
ENDROOT
BRANCH   1   2
ATOM      2  N   THR A   1     -14.713   4.092  23.219  0.00  0.00    -0.237 NA
ATOM      3  H   THR A   1     -13.795   3.917  23.676  0.00  0.00    +0.142 HD
ENDBRANCH   1   2
BRANCH   1   4
ATOM      4  CB  THR A   1     -14.122   6.567  23.479  0.00  0.00    +0.134 C 
ATOM      5  CG2 THR A   1     -14.120   6.683  24.977  0.00  0.00    +0.034 C 
BRANCH   4   6
ATOM      6  OG1 THR A   1     -12.793   6.284  23.042  0.00  0.00    -0.383 OA
ATOM      7  HG1 THR A   1     -12.762   6.298  22.053  0.00  0.00    +0.210 HD
ENDBRANCH   4   6
ENDBRANCH   1   4
BRANCH   1   8
ATOM      8  C   THR A   1     -15.178   5.703  21.411  0.00  0.00    +0.227 C 
ATOM      9  O   THR A   1     -14.172   5.833  20.747  0.00  0.00    -0.287 OA
ENDBRANCH   1   8
TORSDOF 4
REMARK  Name = ../refined-set-2016/4j28/4j28_pocket.pdb
REMARK  147 active torsions:
REMARK  status: ('A' for Active; 'I' for Inactive)
REMARK    1  A    between atoms: _1  and  _3
REMARK    2  A    between atoms: _3  and  _4
REMARK    3  A    between atoms: _3  and  _6
REMARK    4  A    between atoms: _6  and  _7
REMARK    5  A    between atoms: _13  and  _15
REMARK    6  A    between atoms: _15  and  _16
REMARK    7  A    between atoms: _15  and  _18
REMARK    8  A    between atoms: _18  and  _19
REMARK    9  A    between atoms: _22  and  _24
REMARK   10  A    between atoms: _24  and  _25
REMARK   11  A    between atoms: _24  and  _27
REMARK   12  A    between atoms: _27  and  _28
REMARK   13  A    between atoms: _33  and  _35
REMARK   14  A    between atoms: _35  and  _36
REMARK   15  A    between atoms: _35  and  _38
REMARK   16  A    between atoms: _38  and  _39
REMARK   17  A    between atoms: _44  and  _45
REMARK   18  A    between atoms: _47  and  _49
REMARK   19  A    between atoms: _49  and  _50
REMARK   20  A    between atoms: _53  and  _55
REMARK   21  A    between atoms: _55  and  _56
REMARK   22  A    between atoms: _59  and  _61
REMARK   23  A    between atoms: _61  and  _62
REMARK   24  A    between atoms: _61  and  _64
REMARK   25  A    between atoms: _64  and  _65
REMARK   26  A    between atoms: _65  and  _66
REMARK   27  A    between atoms: _69  and  _71
REMARK   28  A    between atoms: _71  and  _72
REMARK   29  A    between atoms: _71  and  _74
REMARK   30  A    between atoms: _74  and  _75
REMARK   31  A    between atoms: _85  and  _87
REMARK   32  A    between atoms: _87  and  _88
REMARK   33  A    between atoms: _87  and  _90
REMARK   34  A    between atoms: _90  and  _91
REMARK   35  A    between atoms: _101  and  _103
REMARK   36  A    between atoms: _103  and  _104
REMARK   37  A    between atoms: _103  and  _106
REMARK   38  A    between atoms: _106  and  _107
REMARK   39  A    between atoms: _107  and  _108
REMARK   40  A    between atoms: _108  and  _109
REMARK   41  A    between atoms: _109  and  _110
REMARK   42  A    between atoms: _114  and  _116
REMARK   43  A    between atoms: _116  and  _117
REMARK   44  A    between atoms: _116  and  _119
REMARK   45  A    between atoms: _119  and  _120
REMARK   46  A    between atoms: _123  and  _125
REMARK   47  A    between atoms: _125  and  _126
REMARK   48  A    between atoms: _125  and  _128
REMARK   49  A    between atoms: _128  and  _129
REMARK   50  A    between atoms: _129  and  _130
REMARK   51  A    between atoms: _130  and  _131
REMARK   52  A    between atoms: _131  and  _132
REMARK   53  A    between atoms: _136  and  _138
REMARK   54  A    between atoms: _138  and  _139
REMARK   55  A    between atoms: _138  and  _141
REMARK   56  A    between atoms: _141  and  _142
REMARK   57  A    between atoms: _147  and  _149
REMARK   58  A    between atoms: _149  and  _150
REMARK   59  A    between atoms: _149  and  _152
REMARK   60  A    between atoms: _152  and  _153
REMARK   61  A    between atoms: _158  and  _160
REMARK   62  A    between atoms: _160  and  _161
REMARK   63  A    between atoms: _160  and  _163
REMARK   64  A    between atoms: _163  and  _164
REMARK   65  A    between atoms: _164  and  _165
REMARK   66  A    between atoms: _168  and  _170
REMARK   67  A    between atoms: _170  and  _171
REMARK   68  A    between atoms: _170  and  _173
REMARK   69  A    between atoms: _173  and  _174
REMARK   70  A    between atoms: _179  and  _180
REMARK   71  A    between atoms: _182  and  _184
REMARK   72  A    between atoms: _184  and  _185
REMARK   73  A    between atoms: _184  and  _187
REMARK   74  A    between atoms: _187  and  _188
REMARK   75  A    between atoms: _190  and  _192
REMARK   76  A    between atoms: _192  and  _193
REMARK   77  A    between atoms: _192  and  _195
REMARK   78  A    between atoms: _195  and  _196
REMARK   79  A    between atoms: _196  and  _197
REMARK   80  A    between atoms: _199  and  _201
REMARK   81  A    between atoms: _201  and  _202
REMARK   82  A    between atoms: _201  and  _204
REMARK   83  A    between atoms: _204  and  _205
REMARK   84  A    between atoms: _215  and  _217
REMARK   85  A    between atoms: _217  and  _218
REMARK   86  A    between atoms: _217  and  _220
REMARK   87  A    between atoms: _220  and  _221
REMARK   88  A    between atoms: _231  and  _233
REMARK   89  A    between atoms: _233  and  _234
REMARK   90  A    between atoms: _233  and  _236
REMARK   91  A    between atoms: _236  and  _237
REMARK   92  A    between atoms: _243  and  _245
REMARK   93  A    between atoms: _245  and  _246
REMARK   94  A    between atoms: _245  and  _248
REMARK   95  A    between atoms: _248  and  _249
REMARK   96  A    between atoms: _252  and  _254
REMARK   97  A    between atoms: _254  and  _255
REMARK   98  A    between atoms: _257  and  _259
REMARK   99  A    between atoms: _259  and  _260
REMARK  100  A    between atoms: _259  and  _262
REMARK  101  A    between atoms: _262  and  _263
REMARK  102  A    between atoms: _266  and  _268
REMARK  103  A    between atoms: _268  and  _269
REMARK  104  A    between atoms: _268  and  _271
REMARK  105  A    between atoms: _271  and  _272
REMARK  106  A    between atoms: _282  and  _284
REMARK  107  A    between atoms: _284  and  _285
REMARK  108  A    between atoms: _284  and  _287
REMARK  109  A    between atoms: _287  and  _288
REMARK  110  A    between atoms: _288  and  _289
REMARK  111  A    between atoms: _289  and  _290
REMARK  112  A    between atoms: _299  and  _301
REMARK  113  A    between atoms: _301  and  _302
REMARK  114  A    between atoms: _301  and  _304
REMARK  115  A    between atoms: _304  and  _305
REMARK  116  A    between atoms: _305  and  _306
REMARK  117  A    between atoms: _309  and  _311
REMARK  118  A    between atoms: _311  and  _312
REMARK  119  A    between atoms: _311  and  _314
REMARK  120  A    between atoms: _316  and  _318
REMARK  121  A    between atoms: _318  and  _319
REMARK  122  A    between atoms: _318  and  _321
REMARK  123  A    between atoms: _321  and  _322
REMARK  124  A    between atoms: _322  and  _323
REMARK  125  A    between atoms: _325  and  _327
REMARK  126  A    between atoms: _327  and  _328
REMARK  127  A    between atoms: _327  and  _330
REMARK  128  A    between atoms: _330  and  _331
REMARK  129  A    between atoms: _334  and  _336
REMARK  130  A    between atoms: _336  and  _337
REMARK  131  A    between atoms: _336  and  _339
REMARK  132  A    between atoms: _339  and  _340
REMARK  133  A    between atoms: _345  and  _347
REMARK  134  A    between atoms: _347  and  _348
REMARK  135  A    between atoms: _347  and  _350
REMARK  136  A    between atoms: _350  and  _351
REMARK  137  A    between atoms: _351  and  _352
REMARK  138  A    between atoms: _357  and  _359
REMARK  139  A    between atoms: _359  and  _360
REMARK  140  A    between atoms: _359  and  _362
REMARK  141  A    between atoms: _362  and  _363
REMARK  142  A    between atoms: _373  and  _375
REMARK  143  A    between atoms: _375  and  _376
REMARK  144  A    between atoms: _378  and  _380
REMARK  145  A    between atoms: _380  and  _381
REMARK  146  A    between atoms: _380  and  _383
REMARK  147  A    between atoms: _383  and  _384
REMARK                            x       y       z     vdW  Elec       q    Type
REMARK                         _______ _______ _______ _____ _____    ______ ____
ROOT
ATOM      1  C   HIS A   2     -16.406  13.021  23.146  0.00  0.00    +0.241 C 
ATOM      2  N   HIS A   3     -16.350  13.804  24.243  0.00  0.00    -0.297 N 
ATOM      3  H   HIS A   3     -15.887  13.448  25.104  0.00  0.00    +0.150 HD
ATOM      4  O   HIS A   2     -16.927  13.409  22.085  0.00  0.00    -0.273 OA
ENDROOT
BRANCH   1   5
ATOM      5  CA  HIS A   2     -15.883  11.558  23.287  0.00  0.00    +0.155 C 
BRANCH   5   8
ATOM      6  C   LYS A   1     -16.798  10.185  21.504  0.00  0.00    +0.238 C 
ATOM      7  O   LYS A   1     -17.770   9.898  22.169  0.00  0.00    -0.274 OA
ATOM      8  N   HIS A   2     -15.826  10.933  21.961  0.00  0.00    -0.297 N 
ATOM      9  H   HIS A   2     -14.988  11.089  21.366  0.00  0.00    +0.150 HD
BRANCH   6  10
ATOM     10  CA  LYS A   1     -16.676   9.698  20.047  0.00  0.00    +0.145 C 
BRANCH  10  11
ATOM     11  N   LYS A   1     -16.789   8.252  20.113  0.00  0.00    -0.238 NA
ATOM     12  H   LYS A   1     -17.228   7.837  20.960  0.00  0.00    +0.142 HD
ENDBRANCH  10  11
BRANCH  10  13
ATOM     13  CB  LYS A   1     -17.871  10.259  19.246  0.00  0.00    +0.026 C 
BRANCH  13  14
ATOM     14  CG  LYS A   1     -17.847  11.735  19.035  0.00  0.00    -0.000 C 
BRANCH  14  15
ATOM     15  CD  LYS A   1     -19.122  12.208  18.319  0.00  0.00    -0.024 C 
BRANCH  15  16
ATOM     16  CE  LYS A   1     -20.299  12.300  19.239  0.00  0.00    -0.086 C 
BRANCH  16  17
ATOM     17  NZ  LYS A   1     -21.382  13.150  18.663  0.00  0.00    +0.380 N 
ATOM     18  HZ1 LYS A   1     -22.180  13.190  19.328  0.00  0.00    -0.089 HD
ATOM     19  HZ2 LYS A   1     -21.017  14.110  18.499  0.00  0.00    -0.089 HD
ATOM     20  HZ3 LYS A   1     -21.700  12.740  17.762  0.00  0.00    -0.089 HD
ENDBRANCH  16  17
ENDBRANCH  15  16
ENDBRANCH  14  15
ENDBRANCH  13  14
ENDBRANCH  10  13
ENDBRANCH   6  10
ENDBRANCH   5   8
BRANCH   5  21
ATOM     21  CB  HIS A   2     -14.525  11.447  24.013  0.00  0.00    +0.076 C 
BRANCH  21  22
ATOM     22  CG  HIS A   2     -14.650  11.434  25.519  0.00  0.00    +0.082 A 
ATOM     23  CD2 HIS A   2     -14.919  10.434  26.395  0.00  0.00    +0.115 A 
ATOM     24  NE2 HIS A   2     -14.962  10.987  27.655  0.00  0.00    -0.221 NA
ATOM     25  CE1 HIS A   2     -14.713  12.290  27.553  0.00  0.00    +0.199 A 
ATOM     26  ND1 HIS A   2     -14.486  12.575  26.282  0.00  0.00    -0.227 NA
ENDBRANCH  21  22
ENDBRANCH   5  21
ENDBRANCH   1   5
BRANCH   2  27
ATOM     27  CA  HIS A   3     -16.932  15.149  24.239  0.00  0.00    +0.155 C 
BRANCH  27  28
ATOM     28  C   HIS A   3     -16.297  15.998  23.151  0.00  0.00    +0.241 C 
ATOM     29  N   GLU A   4     -14.996  15.829  22.925  0.00  0.00    -0.298 N 
ATOM     30  H   GLU A   4     -14.460  15.168  23.522  0.00  0.00    +0.150 HD
ATOM     31  O   HIS A   3     -16.969  16.785  22.501  0.00  0.00    -0.273 OA
BRANCH  29  32
ATOM     32  CA  GLU A   4     -14.315  16.536  21.878  0.00  0.00    +0.137 C 
BRANCH  32  33
ATOM     33  C   GLU A   4     -14.908  16.398  20.478  0.00  0.00    +0.227 C 
ATOM     34  O   GLU A   4     -14.685  17.275  19.639  0.00  0.00    -0.286 OA
ENDBRANCH  32  33
BRANCH  32  35
ATOM     35  CB  GLU A   4     -12.835  16.114  21.839  0.00  0.00    +0.039 C 
BRANCH  35  36
ATOM     36  CG  GLU A   4     -12.648  14.606  21.571  0.00  0.00    +0.116 C 
BRANCH  36  37
ATOM     37  CD  GLU A   4     -11.228  14.194  21.347  0.00  0.00    +0.365 C 
ATOM     38  OE2 GLU A   4     -10.284  14.983  21.679  0.00  0.00    -0.246 OA
ATOM     39  OE1 GLU A   4     -11.054  13.037  20.825  0.00  0.00    -0.246 OA
ENDBRANCH  36  37
ENDBRANCH  35  36
ENDBRANCH  32  35
ENDBRANCH  29  32
ENDBRANCH  27  28
BRANCH  27  40
ATOM     40  CB  HIS A   3     -16.805  15.871  25.602  0.00  0.00    +0.076 C 
BRANCH  40  41
ATOM     41  CG  HIS A   3     -17.235  15.069  26.791  0.00  0.00    +0.082 A 
ATOM     42  CD2 HIS A   3     -16.780  15.069  28.069  0.00  0.00    +0.115 A 
ATOM     43  NE2 HIS A   3     -17.575  14.211  28.787  0.00  0.00    -0.221 NA
ATOM     44  CE1 HIS A   3     -18.472  13.682  27.979  0.00  0.00    +0.199 A 
ATOM     45  ND1 HIS A   3     -18.318  14.215  26.782  0.00  0.00    -0.227 NA
ENDBRANCH  40  41
ENDBRANCH  27  40
ENDBRANCH   2  27
TORSDOF 20
REMARK  Name = ../refined-set-2016/4j28/4j28_pocket.pdb
REMARK  147 active torsions:
REMARK  status: ('A' for Active; 'I' for Inactive)
REMARK    1  A    between atoms: _1  and  _3
REMARK    2  A    between atoms: _3  and  _4
REMARK    3  A    between atoms: _3  and  _6
REMARK    4  A    between atoms: _6  and  _7
REMARK    5  A    between atoms: _13  and  _15
REMARK    6  A    between atoms: _15  and  _16
REMARK    7  A    between atoms: _15  and  _18
REMARK    8  A    between atoms: _18  and  _19
REMARK    9  A    between atoms: _22  and  _24
REMARK   10  A    between atoms: _24  and  _25
REMARK   11  A    between atoms: _24  and  _27
REMARK   12  A    between atoms: _27  and  _28
REMARK   13  A    between atoms: _33  and  _35
REMARK   14  A    between atoms: _35  and  _36
REMARK   15  A    between atoms: _35  and  _38
REMARK   16  A    between atoms: _38  and  _39
REMARK   17  A    between atoms: _44  and  _45
REMARK   18  A    between atoms: _47  and  _49
REMARK   19  A    between atoms: _49  and  _50
REMARK   20  A    between atoms: _53  and  _55
REMARK   21  A    between atoms: _55  and  _56
REMARK   22  A    between atoms: _59  and  _61
REMARK   23  A    between atoms: _61  and  _62
REMARK   24  A    between atoms: _61  and  _64
REMARK   25  A    between atoms: _64  and  _65
REMARK   26  A    between atoms: _65  and  _66
REMARK   27  A    between atoms: _69  and  _71
REMARK   28  A    between atoms: _71  and  _72
REMARK   29  A    between atoms: _71  and  _74
REMARK   30  A    between atoms: _74  and  _75
REMARK   31  A    between atoms: _85  and  _87
REMARK   32  A    between atoms: _87  and  _88
REMARK   33  A    between atoms: _87  and  _90
REMARK   34  A    between atoms: _90  and  _91
REMARK   35  A    between atoms: _101  and  _103
REMARK   36  A    between atoms: _103  and  _104
REMARK   37  A    between atoms: _103  and  _106
REMARK   38  A    between atoms: _106  and  _107
REMARK   39  A    between atoms: _107  and  _108
REMARK   40  A    between atoms: _108  and  _109
REMARK   41  A    between atoms: _109  and  _110
REMARK   42  A    between atoms: _114  and  _116
REMARK   43  A    between atoms: _116  and  _117
REMARK   44  A    between atoms: _116  and  _119
REMARK   45  A    between atoms: _119  and  _120
REMARK   46  A    between atoms: _123  and  _125
REMARK   47  A    between atoms: _125  and  _126
REMARK   48  A    between atoms: _125  and  _128
REMARK   49  A    between atoms: _128  and  _129
REMARK   50  A    between atoms: _129  and  _130
REMARK   51  A    between atoms: _130  and  _131
REMARK   52  A    between atoms: _131  and  _132
REMARK   53  A    between atoms: _136  and  _138
REMARK   54  A    between atoms: _138  and  _139
REMARK   55  A    between atoms: _138  and  _141
REMARK   56  A    between atoms: _141  and  _142
REMARK   57  A    between atoms: _147  and  _149
REMARK   58  A    between atoms: _149  and  _150
REMARK   59  A    between atoms: _149  and  _152
REMARK   60  A    between atoms: _152  and  _153
REMARK   61  A    between atoms: _158  and  _160
REMARK   62  A    between atoms: _160  and  _161
REMARK   63  A    between atoms: _160  and  _163
REMARK   64  A    between atoms: _163  and  _164
REMARK   65  A    between atoms: _164  and  _165
REMARK   66  A    between atoms: _168  and  _170
REMARK   67  A    between atoms: _170  and  _171
REMARK   68  A    between atoms: _170  and  _173
REMARK   69  A    between atoms: _173  and  _174
REMARK   70  A    between atoms: _179  and  _180
REMARK   71  A    between atoms: _182  and  _184
REMARK   72  A    between atoms: _184  and  _185
REMARK   73  A    between atoms: _184  and  _187
REMARK   74  A    between atoms: _187  and  _188
REMARK   75  A    between atoms: _190  and  _192
REMARK   76  A    between atoms: _192  and  _193
REMARK   77  A    between atoms: _192  and  _195
REMARK   78  A    between atoms: _195  and  _196
REMARK   79  A    between atoms: _196  and  _197
REMARK   80  A    between atoms: _199  and  _201
REMARK   81  A    between atoms: _201  and  _202
REMARK   82  A    between atoms: _201  and  _204
REMARK   83  A    between atoms: _204  and  _205
REMARK   84  A    between atoms: _215  and  _217
REMARK   85  A    between atoms: _217  and  _218
REMARK   86  A    between atoms: _217  and  _220
REMARK   87  A    between atoms: _220  and  _221
REMARK   88  A    between atoms: _231  and  _233
REMARK   89  A    between atoms: _233  and  _234
REMARK   90  A    between atoms: _233  and  _236
REMARK   91  A    between atoms: _236  and  _237
REMARK   92  A    between atoms: _243  and  _245
REMARK   93  A    between atoms: _245  and  _246
REMARK   94  A    between atoms: _245  and  _248
REMARK   95  A    between atoms: _248  and  _249
REMARK   96  A    between atoms: _252  and  _254
REMARK   97  A    between atoms: _254  and  _255
REMARK   98  A    between atoms: _257  and  _259
REMARK   99  A    between atoms: _259  and  _260
REMARK  100  A    between atoms: _259  and  _262
REMARK  101  A    between atoms: _262  and  _263
REMARK  102  A    between atoms: _266  and  _268
REMARK  103  A    between atoms: _268  and  _269
REMARK  104  A    between atoms: _268  and  _271
REMARK  105  A    between atoms: _271  and  _272
REMARK  106  A    between atoms: _282  and  _284
REMARK  107  A    between atoms: _284  and  _285
REMARK  108  A    between atoms: _284  and  _287
REMARK  109  A    between atoms: _287  and  _288
REMARK  110  A    between atoms: _288  and  _289
REMARK  111  A    between atoms: _289  and  _290
REMARK  112  A    between atoms: _299  and  _301
REMARK  113  A    between atoms: _301  and  _302
REMARK  114  A    between atoms: _301  and  _304
REMARK  115  A    between atoms: _304  and  _305
REMARK  116  A    between atoms: _305  and  _306
REMARK  117  A    between atoms: _309  and  _311
REMARK  118  A    between atoms: _311  and  _312
REMARK  119  A    between atoms: _311  and  _314
REMARK  120  A    between atoms: _316  and  _318
REMARK  121  A    between atoms: _318  and  _319
REMARK  122  A    between atoms: _318  and  _321
REMARK  123  A    between atoms: _321  and  _322
REMARK  124  A    between atoms: _322  and  _323
REMARK  125  A    between atoms: _325  and  _327
REMARK  126  A    between atoms: _327  and  _328
REMARK  127  A    between atoms: _327  and  _330
REMARK  128  A    between atoms: _330  and  _331
REMARK  129  A    between atoms: _334  and  _336
REMARK  130  A    between atoms: _336  and  _337
REMARK  131  A    between atoms: _336  and  _339
REMARK  132  A    between atoms: _339  and  _340
REMARK  133  A    between atoms: _345  and  _347
REMARK  134  A    between atoms: _347  and  _348
REMARK  135  A    between atoms: _347  and  _350
REMARK  136  A    between atoms: _350  and  _351
REMARK  137  A    between atoms: _351  and  _352
REMARK  138  A    between atoms: _357  and  _359
REMARK  139  A    between atoms: _359  and  _360
REMARK  140  A    between atoms: _359  and  _362
REMARK  141  A    between atoms: _362  and  _363
REMARK  142  A    between atoms: _373  and  _375
REMARK  143  A    between atoms: _375  and  _376
REMARK  144  A    between atoms: _378  and  _380
REMARK  145  A    between atoms: _380  and  _381
REMARK  146  A    between atoms: _380  and  _383
REMARK  147  A    between atoms: _383  and  _384
REMARK                            x       y       z     vdW  Elec       q    Type
REMARK                         _______ _______ _______ _____ _____    ______ ____
ROOT
ATOM      1  CG  TYR A   1     -18.028   6.257  25.631  0.00  0.00    -0.020 A 
ATOM      2  CD2 TYR A   1     -18.014   6.485  26.986  0.00  0.00    -0.001 A 
ATOM      3  CE2 TYR A   1     -17.936   7.782  27.507  0.00  0.00    +0.036 A 
ATOM      4  CZ  TYR A   1     -17.925   8.845  26.665  0.00  0.00    +0.134 A 
ATOM      5  CE1 TYR A   1     -17.871   8.648  25.295  0.00  0.00    +0.036 A 
ATOM      6  CD1 TYR A   1     -17.969   7.375  24.784  0.00  0.00    -0.001 A 
ENDROOT
BRANCH   4   7
ATOM      7  OH  TYR A   1     -17.873  10.133  27.137  0.00  0.00    -0.506 OA
ATOM      8  HH  TYR A   1     -18.662  10.306  27.709  0.00  0.00    +0.292 HD
ENDBRANCH   4   7
BRANCH   1   9
ATOM      9  CB  TYR A   1     -18.107   4.853  25.066  0.00  0.00    +0.051 C 
BRANCH   9  10
ATOM     10  CA  TYR A   1     -19.442   4.511  24.336  0.00  0.00    +0.137 C 
BRANCH  10  11
ATOM     11  N   TYR A   1     -19.274   3.284  23.579  0.00  0.00    -0.239 NA
ATOM     12  H   TYR A   1     -18.309   2.936  23.406  0.00  0.00    +0.142 HD
ENDBRANCH  10  11
BRANCH  10  13
ATOM     13  C   TYR A   1     -19.764   5.609  23.316  0.00  0.00    +0.224 C 
ATOM     14  O   TYR A   1     -19.129   5.700  22.264  0.00  0.00    -0.287 OA
ENDBRANCH  10  13
ENDBRANCH   9  10
ENDBRANCH   1   9
TORSDOF 5
REMARK  Name = ../refined-set-2016/4j28/4j28_pocket.pdb
REMARK  147 active torsions:
REMARK  status: ('A' for Active; 'I' for Inactive)
REMARK    1  A    between atoms: _1  and  _3
REMARK    2  A    between atoms: _3  and  _4
REMARK    3  A    between atoms: _3  and  _6
REMARK    4  A    between atoms: _6  and  _7
REMARK    5  A    between atoms: _13  and  _15
REMARK    6  A    between atoms: _15  and  _16
REMARK    7  A    between atoms: _15  and  _18
REMARK    8  A    between atoms: _18  and  _19
REMARK    9  A    between atoms: _22  and  _24
REMARK   10  A    between atoms: _24  and  _25
REMARK   11  A    between atoms: _24  and  _27
REMARK   12  A    between atoms: _27  and  _28
REMARK   13  A    between atoms: _33  and  _35
REMARK   14  A    between atoms: _35  and  _36
REMARK   15  A    between atoms: _35  and  _38
REMARK   16  A    between atoms: _38  and  _39
REMARK   17  A    between atoms: _44  and  _45
REMARK   18  A    between atoms: _47  and  _49
REMARK   19  A    between atoms: _49  and  _50
REMARK   20  A    between atoms: _53  and  _55
REMARK   21  A    between atoms: _55  and  _56
REMARK   22  A    between atoms: _59  and  _61
REMARK   23  A    between atoms: _61  and  _62
REMARK   24  A    between atoms: _61  and  _64
REMARK   25  A    between atoms: _64  and  _65
REMARK   26  A    between atoms: _65  and  _66
REMARK   27  A    between atoms: _69  and  _71
REMARK   28  A    between atoms: _71  and  _72
REMARK   29  A    between atoms: _71  and  _74
REMARK   30  A    between atoms: _74  and  _75
REMARK   31  A    between atoms: _85  and  _87
REMARK   32  A    between atoms: _87  and  _88
REMARK   33  A    between atoms: _87  and  _90
REMARK   34  A    between atoms: _90  and  _91
REMARK   35  A    between atoms: _101  and  _103
REMARK   36  A    between atoms: _103  and  _104
REMARK   37  A    between atoms: _103  and  _106
REMARK   38  A    between atoms: _106  and  _107
REMARK   39  A    between atoms: _107  and  _108
REMARK   40  A    between atoms: _108  and  _109
REMARK   41  A    between atoms: _109  and  _110
REMARK   42  A    between atoms: _114  and  _116
REMARK   43  A    between atoms: _116  and  _117
REMARK   44  A    between atoms: _116  and  _119
REMARK   45  A    between atoms: _119  and  _120
REMARK   46  A    between atoms: _123  and  _125
REMARK   47  A    between atoms: _125  and  _126
REMARK   48  A    between atoms: _125  and  _128
REMARK   49  A    between atoms: _128  and  _129
REMARK   50  A    between atoms: _129  and  _130
REMARK   51  A    between atoms: _130  and  _131
REMARK   52  A    between atoms: _131  and  _132
REMARK   53  A    between atoms: _136  and  _138
REMARK   54  A    between atoms: _138  and  _139
REMARK   55  A    between atoms: _138  and  _141
REMARK   56  A    between atoms: _141  and  _142
REMARK   57  A    between atoms: _147  and  _149
REMARK   58  A    between atoms: _149  and  _150
REMARK   59  A    between atoms: _149  and  _152
REMARK   60  A    between atoms: _152  and  _153
REMARK   61  A    between atoms: _158  and  _160
REMARK   62  A    between atoms: _160  and  _161
REMARK   63  A    between atoms: _160  and  _163
REMARK   64  A    between atoms: _163  and  _164
REMARK   65  A    between atoms: _164  and  _165
REMARK   66  A    between atoms: _168  and  _170
REMARK   67  A    between atoms: _170  and  _171
REMARK   68  A    between atoms: _170  and  _173
REMARK   69  A    between atoms: _173  and  _174
REMARK   70  A    between atoms: _179  and  _180
REMARK   71  A    between atoms: _182  and  _184
REMARK   72  A    between atoms: _184  and  _185
REMARK   73  A    between atoms: _184  and  _187
REMARK   74  A    between atoms: _187  and  _188
REMARK   75  A    between atoms: _190  and  _192
REMARK   76  A    between atoms: _192  and  _193
REMARK   77  A    between atoms: _192  and  _195
REMARK   78  A    between atoms: _195  and  _196
REMARK   79  A    between atoms: _196  and  _197
REMARK   80  A    between atoms: _199  and  _201
REMARK   81  A    between atoms: _201  and  _202
REMARK   82  A    between atoms: _201  and  _204
REMARK   83  A    between atoms: _204  and  _205
REMARK   84  A    between atoms: _215  and  _217
REMARK   85  A    between atoms: _217  and  _218
REMARK   86  A    between atoms: _217  and  _220
REMARK   87  A    between atoms: _220  and  _221
REMARK   88  A    between atoms: _231  and  _233
REMARK   89  A    between atoms: _233  and  _234
REMARK   90  A    between atoms: _233  and  _236
REMARK   91  A    between atoms: _236  and  _237
REMARK   92  A    between atoms: _243  and  _245
REMARK   93  A    between atoms: _245  and  _246
REMARK   94  A    between atoms: _245  and  _248
REMARK   95  A    between atoms: _248  and  _249
REMARK   96  A    between atoms: _252  and  _254
REMARK   97  A    between atoms: _254  and  _255
REMARK   98  A    between atoms: _257  and  _259
REMARK   99  A    between atoms: _259  and  _260
REMARK  100  A    between atoms: _259  and  _262
REMARK  101  A    between atoms: _262  and  _263
REMARK  102  A    between atoms: _266  and  _268
REMARK  103  A    between atoms: _268  and  _269
REMARK  104  A    between atoms: _268  and  _271
REMARK  105  A    between atoms: _271  and  _272
REMARK  106  A    between atoms: _282  and  _284
REMARK  107  A    between atoms: _284  and  _285
REMARK  108  A    between atoms: _284  and  _287
REMARK  109  A    between atoms: _287  and  _288
REMARK  110  A    between atoms: _288  and  _289
REMARK  111  A    between atoms: _289  and  _290
REMARK  112  A    between atoms: _299  and  _301
REMARK  113  A    between atoms: _301  and  _302
REMARK  114  A    between atoms: _301  and  _304
REMARK  115  A    between atoms: _304  and  _305
REMARK  116  A    between atoms: _305  and  _306
REMARK  117  A    between atoms: _309  and  _311
REMARK  118  A    between atoms: _311  and  _312
REMARK  119  A    between atoms: _311  and  _314
REMARK  120  A    between atoms: _316  and  _318
REMARK  121  A    between atoms: _318  and  _319
REMARK  122  A    between atoms: _318  and  _321
REMARK  123  A    between atoms: _321  and  _322
REMARK  124  A    between atoms: _322  and  _323
REMARK  125  A    between atoms: _325  and  _327
REMARK  126  A    between atoms: _327  and  _328
REMARK  127  A    between atoms: _327  and  _330
REMARK  128  A    between atoms: _330  and  _331
REMARK  129  A    between atoms: _334  and  _336
REMARK  130  A    between atoms: _336  and  _337
REMARK  131  A    between atoms: _336  and  _339
REMARK  132  A    between atoms: _339  and  _340
REMARK  133  A    between atoms: _345  and  _347
REMARK  134  A    between atoms: _347  and  _348
REMARK  135  A    between atoms: _347  and  _350
REMARK  136  A    between atoms: _350  and  _351
REMARK  137  A    between atoms: _351  and  _352
REMARK  138  A    between atoms: _357  and  _359
REMARK  139  A    between atoms: _359  and  _360
REMARK  140  A    between atoms: _359  and  _362
REMARK  141  A    between atoms: _362  and  _363
REMARK  142  A    between atoms: _373  and  _375
REMARK  143  A    between atoms: _375  and  _376
REMARK  144  A    between atoms: _378  and  _380
REMARK  145  A    between atoms: _380  and  _381
REMARK  146  A    between atoms: _380  and  _383
REMARK  147  A    between atoms: _383  and  _384
REMARK                            x       y       z     vdW  Elec       q    Type
REMARK                         _______ _______ _______ _____ _____    ______ ____
ROOT
ATOM      1  CA  SER A   1     -20.978  11.186  24.066  0.00  0.00    +0.163 C 
ENDROOT
BRANCH   1   2
ATOM      2  N   SER A   1     -20.693   9.909  23.405  0.00  0.00    -0.237 NA
ATOM      3  H   SER A   1     -19.891   9.857  22.745  0.00  0.00    +0.142 HD
ENDBRANCH   1   2
BRANCH   1   4
ATOM      4  C   SER A   1     -21.990  12.040  23.276  0.00  0.00    +0.227 C 
ATOM      5  O   SER A   1     -21.708  12.425  22.160  0.00  0.00    -0.287 OA
ENDBRANCH   1   4
BRANCH   1   6
ATOM      6  CB  SER A   1     -19.717  12.010  24.238  0.00  0.00    +0.162 C 
BRANCH   6   7
ATOM      7  OG  SER A   1     -20.065  13.278  24.883  0.00  0.00    -0.380 OA
ATOM      8  H   SER A   1     -20.712  13.769  24.316  0.00  0.00    +0.211 HD
ENDBRANCH   6   7
ENDBRANCH   1   6
TORSDOF 4
REMARK  Name = ../refined-set-2016/4j28/4j28_pocket.pdb
REMARK  147 active torsions:
REMARK  status: ('A' for Active; 'I' for Inactive)
REMARK    1  A    between atoms: _1  and  _3
REMARK    2  A    between atoms: _3  and  _4
REMARK    3  A    between atoms: _3  and  _6
REMARK    4  A    between atoms: _6  and  _7
REMARK    5  A    between atoms: _13  and  _15
REMARK    6  A    between atoms: _15  and  _16
REMARK    7  A    between atoms: _15  and  _18
REMARK    8  A    between atoms: _18  and  _19
REMARK    9  A    between atoms: _22  and  _24
REMARK   10  A    between atoms: _24  and  _25
REMARK   11  A    between atoms: _24  and  _27
REMARK   12  A    between atoms: _27  and  _28
REMARK   13  A    between atoms: _33  and  _35
REMARK   14  A    between atoms: _35  and  _36
REMARK   15  A    between atoms: _35  and  _38
REMARK   16  A    between atoms: _38  and  _39
REMARK   17  A    between atoms: _44  and  _45
REMARK   18  A    between atoms: _47  and  _49
REMARK   19  A    between atoms: _49  and  _50
REMARK   20  A    between atoms: _53  and  _55
REMARK   21  A    between atoms: _55  and  _56
REMARK   22  A    between atoms: _59  and  _61
REMARK   23  A    between atoms: _61  and  _62
REMARK   24  A    between atoms: _61  and  _64
REMARK   25  A    between atoms: _64  and  _65
REMARK   26  A    between atoms: _65  and  _66
REMARK   27  A    between atoms: _69  and  _71
REMARK   28  A    between atoms: _71  and  _72
REMARK   29  A    between atoms: _71  and  _74
REMARK   30  A    between atoms: _74  and  _75
REMARK   31  A    between atoms: _85  and  _87
REMARK   32  A    between atoms: _87  and  _88
REMARK   33  A    between atoms: _87  and  _90
REMARK   34  A    between atoms: _90  and  _91
REMARK   35  A    between atoms: _101  and  _103
REMARK   36  A    between atoms: _103  and  _104
REMARK   37  A    between atoms: _103  and  _106
REMARK   38  A    between atoms: _106  and  _107
REMARK   39  A    between atoms: _107  and  _108
REMARK   40  A    between atoms: _108  and  _109
REMARK   41  A    between atoms: _109  and  _110
REMARK   42  A    between atoms: _114  and  _116
REMARK   43  A    between atoms: _116  and  _117
REMARK   44  A    between atoms: _116  and  _119
REMARK   45  A    between atoms: _119  and  _120
REMARK   46  A    between atoms: _123  and  _125
REMARK   47  A    between atoms: _125  and  _126
REMARK   48  A    between atoms: _125  and  _128
REMARK   49  A    between atoms: _128  and  _129
REMARK   50  A    between atoms: _129  and  _130
REMARK   51  A    between atoms: _130  and  _131
REMARK   52  A    between atoms: _131  and  _132
REMARK   53  A    between atoms: _136  and  _138
REMARK   54  A    between atoms: _138  and  _139
REMARK   55  A    between atoms: _138  and  _141
REMARK   56  A    between atoms: _141  and  _142
REMARK   57  A    between atoms: _147  and  _149
REMARK   58  A    between atoms: _149  and  _150
REMARK   59  A    between atoms: _149  and  _152
REMARK   60  A    between atoms: _152  and  _153
REMARK   61  A    between atoms: _158  and  _160
REMARK   62  A    between atoms: _160  and  _161
REMARK   63  A    between atoms: _160  and  _163
REMARK   64  A    between atoms: _163  and  _164
REMARK   65  A    between atoms: _164  and  _165
REMARK   66  A    between atoms: _168  and  _170
REMARK   67  A    between atoms: _170  and  _171
REMARK   68  A    between atoms: _170  and  _173
REMARK   69  A    between atoms: _173  and  _174
REMARK   70  A    between atoms: _179  and  _180
REMARK   71  A    between atoms: _182  and  _184
REMARK   72  A    between atoms: _184  and  _185
REMARK   73  A    between atoms: _184  and  _187
REMARK   74  A    between atoms: _187  and  _188
REMARK   75  A    between atoms: _190  and  _192
REMARK   76  A    between atoms: _192  and  _193
REMARK   77  A    between atoms: _192  and  _195
REMARK   78  A    between atoms: _195  and  _196
REMARK   79  A    between atoms: _196  and  _197
REMARK   80  A    between atoms: _199  and  _201
REMARK   81  A    between atoms: _201  and  _202
REMARK   82  A    between atoms: _201  and  _204
REMARK   83  A    between atoms: _204  and  _205
REMARK   84  A    between atoms: _215  and  _217
REMARK   85  A    between atoms: _217  and  _218
REMARK   86  A    between atoms: _217  and  _220
REMARK   87  A    between atoms: _220  and  _221
REMARK   88  A    between atoms: _231  and  _233
REMARK   89  A    between atoms: _233  and  _234
REMARK   90  A    between atoms: _233  and  _236
REMARK   91  A    between atoms: _236  and  _237
REMARK   92  A    between atoms: _243  and  _245
REMARK   93  A    between atoms: _245  and  _246
REMARK   94  A    between atoms: _245  and  _248
REMARK   95  A    between atoms: _248  and  _249
REMARK   96  A    between atoms: _252  and  _254
REMARK   97  A    between atoms: _254  and  _255
REMARK   98  A    between atoms: _257  and  _259
REMARK   99  A    between atoms: _259  and  _260
REMARK  100  A    between atoms: _259  and  _262
REMARK  101  A    between atoms: _262  and  _263
REMARK  102  A    between atoms: _266  and  _268
REMARK  103  A    between atoms: _268  and  _269
REMARK  104  A    between atoms: _268  and  _271
REMARK  105  A    between atoms: _271  and  _272
REMARK  106  A    between atoms: _282  and  _284
REMARK  107  A    between atoms: _284  and  _285
REMARK  108  A    between atoms: _284  and  _287
REMARK  109  A    between atoms: _287  and  _288
REMARK  110  A    between atoms: _288  and  _289
REMARK  111  A    between atoms: _289  and  _290
REMARK  112  A    between atoms: _299  and  _301
REMARK  113  A    between atoms: _301  and  _302
REMARK  114  A    between atoms: _301  and  _304
REMARK  115  A    between atoms: _304  and  _305
REMARK  116  A    between atoms: _305  and  _306
REMARK  117  A    between atoms: _309  and  _311
REMARK  118  A    between atoms: _311  and  _312
REMARK  119  A    between atoms: _311  and  _314
REMARK  120  A    between atoms: _316  and  _318
REMARK  121  A    between atoms: _318  and  _319
REMARK  122  A    between atoms: _318  and  _321
REMARK  123  A    between atoms: _321  and  _322
REMARK  124  A    between atoms: _322  and  _323
REMARK  125  A    between atoms: _325  and  _327
REMARK  126  A    between atoms: _327  and  _328
REMARK  127  A    between atoms: _327  and  _330
REMARK  128  A    between atoms: _330  and  _331
REMARK  129  A    between atoms: _334  and  _336
REMARK  130  A    between atoms: _336  and  _337
REMARK  131  A    between atoms: _336  and  _339
REMARK  132  A    between atoms: _339  and  _340
REMARK  133  A    between atoms: _345  and  _347
REMARK  134  A    between atoms: _347  and  _348
REMARK  135  A    between atoms: _347  and  _350
REMARK  136  A    between atoms: _350  and  _351
REMARK  137  A    between atoms: _351  and  _352
REMARK  138  A    between atoms: _357  and  _359
REMARK  139  A    between atoms: _359  and  _360
REMARK  140  A    between atoms: _359  and  _362
REMARK  141  A    between atoms: _362  and  _363
REMARK  142  A    between atoms: _373  and  _375
REMARK  143  A    between atoms: _375  and  _376
REMARK  144  A    between atoms: _378  and  _380
REMARK  145  A    between atoms: _380  and  _381
REMARK  146  A    between atoms: _380  and  _383
REMARK  147  A    between atoms: _383  and  _384
REMARK                            x       y       z     vdW  Elec       q    Type
REMARK                         _______ _______ _______ _____ _____    ______ ____
ROOT
ATOM      1  CA  MET A   1     -22.458  16.402  24.331  0.00  0.00    +0.134 C 
ENDROOT
BRANCH   1   2
ATOM      2  N   MET A   1     -23.221  15.141  24.322  0.00  0.00    -0.239 NA
ATOM      3  H   MET A   1     -23.467  14.687  25.225  0.00  0.00    +0.142 HD
ENDBRANCH   1   2
BRANCH   1   4
ATOM      4  C   MET A   1     -21.296  16.329  23.338  0.00  0.00    +0.224 C 
ATOM      5  O   MET A   1     -20.505  15.375  23.359  0.00  0.00    -0.287 OA
ENDBRANCH   1   4
BRANCH   1   6
ATOM      6  CB  MET A   1     -21.945  16.737  25.731  0.00  0.00    +0.037 C 
BRANCH   6   7
ATOM      7  CG  MET A   1     -21.128  18.007  25.814  0.00  0.00    +0.059 C 
BRANCH   7   8
ATOM      8  SD  MET A   1     -20.874  18.557  27.536  0.00  0.00    -0.139 S 
ATOM      9  CE  MET A   1     -19.688  17.330  28.076  0.00  0.00    +0.069 C 
ENDBRANCH   7   8
ENDBRANCH   6   7
ENDBRANCH   1   6
TORSDOF 5
REMARK  Name = ../refined-set-2016/4j28/4j28_pocket.pdb
REMARK  147 active torsions:
REMARK  status: ('A' for Active; 'I' for Inactive)
REMARK    1  A    between atoms: _1  and  _3
REMARK    2  A    between atoms: _3  and  _4
REMARK    3  A    between atoms: _3  and  _6
REMARK    4  A    between atoms: _6  and  _7
REMARK    5  A    between atoms: _13  and  _15
REMARK    6  A    between atoms: _15  and  _16
REMARK    7  A    between atoms: _15  and  _18
REMARK    8  A    between atoms: _18  and  _19
REMARK    9  A    between atoms: _22  and  _24
REMARK   10  A    between atoms: _24  and  _25
REMARK   11  A    between atoms: _24  and  _27
REMARK   12  A    between atoms: _27  and  _28
REMARK   13  A    between atoms: _33  and  _35
REMARK   14  A    between atoms: _35  and  _36
REMARK   15  A    between atoms: _35  and  _38
REMARK   16  A    between atoms: _38  and  _39
REMARK   17  A    between atoms: _44  and  _45
REMARK   18  A    between atoms: _47  and  _49
REMARK   19  A    between atoms: _49  and  _50
REMARK   20  A    between atoms: _53  and  _55
REMARK   21  A    between atoms: _55  and  _56
REMARK   22  A    between atoms: _59  and  _61
REMARK   23  A    between atoms: _61  and  _62
REMARK   24  A    between atoms: _61  and  _64
REMARK   25  A    between atoms: _64  and  _65
REMARK   26  A    between atoms: _65  and  _66
REMARK   27  A    between atoms: _69  and  _71
REMARK   28  A    between atoms: _71  and  _72
REMARK   29  A    between atoms: _71  and  _74
REMARK   30  A    between atoms: _74  and  _75
REMARK   31  A    between atoms: _85  and  _87
REMARK   32  A    between atoms: _87  and  _88
REMARK   33  A    between atoms: _87  and  _90
REMARK   34  A    between atoms: _90  and  _91
REMARK   35  A    between atoms: _101  and  _103
REMARK   36  A    between atoms: _103  and  _104
REMARK   37  A    between atoms: _103  and  _106
REMARK   38  A    between atoms: _106  and  _107
REMARK   39  A    between atoms: _107  and  _108
REMARK   40  A    between atoms: _108  and  _109
REMARK   41  A    between atoms: _109  and  _110
REMARK   42  A    between atoms: _114  and  _116
REMARK   43  A    between atoms: _116  and  _117
REMARK   44  A    between atoms: _116  and  _119
REMARK   45  A    between atoms: _119  and  _120
REMARK   46  A    between atoms: _123  and  _125
REMARK   47  A    between atoms: _125  and  _126
REMARK   48  A    between atoms: _125  and  _128
REMARK   49  A    between atoms: _128  and  _129
REMARK   50  A    between atoms: _129  and  _130
REMARK   51  A    between atoms: _130  and  _131
REMARK   52  A    between atoms: _131  and  _132
REMARK   53  A    between atoms: _136  and  _138
REMARK   54  A    between atoms: _138  and  _139
REMARK   55  A    between atoms: _138  and  _141
REMARK   56  A    between atoms: _141  and  _142
REMARK   57  A    between atoms: _147  and  _149
REMARK   58  A    between atoms: _149  and  _150
REMARK   59  A    between atoms: _149  and  _152
REMARK   60  A    between atoms: _152  and  _153
REMARK   61  A    between atoms: _158  and  _160
REMARK   62  A    between atoms: _160  and  _161
REMARK   63  A    between atoms: _160  and  _163
REMARK   64  A    between atoms: _163  and  _164
REMARK   65  A    between atoms: _164  and  _165
REMARK   66  A    between atoms: _168  and  _170
REMARK   67  A    between atoms: _170  and  _171
REMARK   68  A    between atoms: _170  and  _173
REMARK   69  A    between atoms: _173  and  _174
REMARK   70  A    between atoms: _179  and  _180
REMARK   71  A    between atoms: _182  and  _184
REMARK   72  A    between atoms: _184  and  _185
REMARK   73  A    between atoms: _184  and  _187
REMARK   74  A    between atoms: _187  and  _188
REMARK   75  A    between atoms: _190  and  _192
REMARK   76  A    between atoms: _192  and  _193
REMARK   77  A    between atoms: _192  and  _195
REMARK   78  A    between atoms: _195  and  _196
REMARK   79  A    between atoms: _196  and  _197
REMARK   80  A    between atoms: _199  and  _201
REMARK   81  A    between atoms: _201  and  _202
REMARK   82  A    between atoms: _201  and  _204
REMARK   83  A    between atoms: _204  and  _205
REMARK   84  A    between atoms: _215  and  _217
REMARK   85  A    between atoms: _217  and  _218
REMARK   86  A    between atoms: _217  and  _220
REMARK   87  A    between atoms: _220  and  _221
REMARK   88  A    between atoms: _231  and  _233
REMARK   89  A    between atoms: _233  and  _234
REMARK   90  A    between atoms: _233  and  _236
REMARK   91  A    between atoms: _236  and  _237
REMARK   92  A    between atoms: _243  and  _245
REMARK   93  A    between atoms: _245  and  _246
REMARK   94  A    between atoms: _245  and  _248
REMARK   95  A    between atoms: _248  and  _249
REMARK   96  A    between atoms: _252  and  _254
REMARK   97  A    between atoms: _254  and  _255
REMARK   98  A    between atoms: _257  and  _259
REMARK   99  A    between atoms: _259  and  _260
REMARK  100  A    between atoms: _259  and  _262
REMARK  101  A    between atoms: _262  and  _263
REMARK  102  A    between atoms: _266  and  _268
REMARK  103  A    between atoms: _268  and  _269
REMARK  104  A    between atoms: _268  and  _271
REMARK  105  A    between atoms: _271  and  _272
REMARK  106  A    between atoms: _282  and  _284
REMARK  107  A    between atoms: _284  and  _285
REMARK  108  A    between atoms: _284  and  _287
REMARK  109  A    between atoms: _287  and  _288
REMARK  110  A    between atoms: _288  and  _289
REMARK  111  A    between atoms: _289  and  _290
REMARK  112  A    between atoms: _299  and  _301
REMARK  113  A    between atoms: _301  and  _302
REMARK  114  A    between atoms: _301  and  _304
REMARK  115  A    between atoms: _304  and  _305
REMARK  116  A    between atoms: _305  and  _306
REMARK  117  A    between atoms: _309  and  _311
REMARK  118  A    between atoms: _311  and  _312
REMARK  119  A    between atoms: _311  and  _314
REMARK  120  A    between atoms: _316  and  _318
REMARK  121  A    between atoms: _318  and  _319
REMARK  122  A    between atoms: _318  and  _321
REMARK  123  A    between atoms: _321  and  _322
REMARK  124  A    between atoms: _322  and  _323
REMARK  125  A    between atoms: _325  and  _327
REMARK  126  A    between atoms: _327  and  _328
REMARK  127  A    between atoms: _327  and  _330
REMARK  128  A    between atoms: _330  and  _331
REMARK  129  A    between atoms: _334  and  _336
REMARK  130  A    between atoms: _336  and  _337
REMARK  131  A    between atoms: _336  and  _339
REMARK  132  A    between atoms: _339  and  _340
REMARK  133  A    between atoms: _345  and  _347
REMARK  134  A    between atoms: _347  and  _348
REMARK  135  A    between atoms: _347  and  _350
REMARK  136  A    between atoms: _350  and  _351
REMARK  137  A    between atoms: _351  and  _352
REMARK  138  A    between atoms: _357  and  _359
REMARK  139  A    between atoms: _359  and  _360
REMARK  140  A    between atoms: _359  and  _362
REMARK  141  A    between atoms: _362  and  _363
REMARK  142  A    between atoms: _373  and  _375
REMARK  143  A    between atoms: _375  and  _376
REMARK  144  A    between atoms: _378  and  _380
REMARK  145  A    between atoms: _380  and  _381
REMARK  146  A    between atoms: _380  and  _383
REMARK  147  A    between atoms: _383  and  _384
REMARK                            x       y       z     vdW  Elec       q    Type
REMARK                         _______ _______ _______ _____ _____    ______ ____
ROOT
ATOM      1  CG  TRP A   1     -16.778  19.976  23.961  0.00  0.00    -0.002 A 
ATOM      2  CD2 TRP A   1     -15.874  19.411  24.912  0.00  0.00    +0.013 A 
ATOM      3  CE2 TRP A   1     -16.553  19.369  26.159  0.00  0.00    +0.056 A 
ATOM      4  CZ2 TRP A   1     -15.954  18.880  27.324  0.00  0.00    +0.017 A 
ATOM      5  CH2 TRP A   1     -14.661  18.390  27.220  0.00  0.00    +0.001 A 
ATOM      6  CZ3 TRP A   1     -13.973  18.388  25.993  0.00  0.00    +0.000 A 
ATOM      7  NE1 TRP A   1     -17.824  19.860  25.955  0.00  0.00    -0.352 N 
ATOM      8  HE1 TRP A   1     -18.567  19.937  26.678  0.00  0.00    +0.166 HD
ATOM      9  CE3 TRP A   1     -14.571  18.878  24.821  0.00  0.00    +0.001 A 
ATOM     10  CD1 TRP A   1     -17.946  20.229  24.644  0.00  0.00    +0.068 A 
ENDROOT
BRANCH   1  11
ATOM     11  CB  TRP A   1     -16.499  20.230  22.484  0.00  0.00    +0.053 C 
BRANCH  11  12
ATOM     12  CA  TRP A   1     -17.758  20.263  21.592  0.00  0.00    +0.137 C 
BRANCH  12  13
ATOM     13  N   TRP A   1     -18.409  18.985  21.625  0.00  0.00    -0.239 NA
ATOM     14  H   TRP A   1     -17.866  18.165  21.962  0.00  0.00    +0.142 HD
ENDBRANCH  12  13
BRANCH  12  15
ATOM     15  C   TRP A   1     -17.324  20.699  20.193  0.00  0.00    +0.224 C 
ATOM     16  O   TRP A   1     -16.778  21.789  20.053  0.00  0.00    -0.287 OA
ENDBRANCH  12  15
ENDBRANCH  11  12
ENDBRANCH   1  11
TORSDOF 4
REMARK  Name = ../refined-set-2016/4j28/4j28_pocket.pdb
REMARK  147 active torsions:
REMARK  status: ('A' for Active; 'I' for Inactive)
REMARK    1  A    between atoms: _1  and  _3
REMARK    2  A    between atoms: _3  and  _4
REMARK    3  A    between atoms: _3  and  _6
REMARK    4  A    between atoms: _6  and  _7
REMARK    5  A    between atoms: _13  and  _15
REMARK    6  A    between atoms: _15  and  _16
REMARK    7  A    between atoms: _15  and  _18
REMARK    8  A    between atoms: _18  and  _19
REMARK    9  A    between atoms: _22  and  _24
REMARK   10  A    between atoms: _24  and  _25
REMARK   11  A    between atoms: _24  and  _27
REMARK   12  A    between atoms: _27  and  _28
REMARK   13  A    between atoms: _33  and  _35
REMARK   14  A    between atoms: _35  and  _36
REMARK   15  A    between atoms: _35  and  _38
REMARK   16  A    between atoms: _38  and  _39
REMARK   17  A    between atoms: _44  and  _45
REMARK   18  A    between atoms: _47  and  _49
REMARK   19  A    between atoms: _49  and  _50
REMARK   20  A    between atoms: _53  and  _55
REMARK   21  A    between atoms: _55  and  _56
REMARK   22  A    between atoms: _59  and  _61
REMARK   23  A    between atoms: _61  and  _62
REMARK   24  A    between atoms: _61  and  _64
REMARK   25  A    between atoms: _64  and  _65
REMARK   26  A    between atoms: _65  and  _66
REMARK   27  A    between atoms: _69  and  _71
REMARK   28  A    between atoms: _71  and  _72
REMARK   29  A    between atoms: _71  and  _74
REMARK   30  A    between atoms: _74  and  _75
REMARK   31  A    between atoms: _85  and  _87
REMARK   32  A    between atoms: _87  and  _88
REMARK   33  A    between atoms: _87  and  _90
REMARK   34  A    between atoms: _90  and  _91
REMARK   35  A    between atoms: _101  and  _103
REMARK   36  A    between atoms: _103  and  _104
REMARK   37  A    between atoms: _103  and  _106
REMARK   38  A    between atoms: _106  and  _107
REMARK   39  A    between atoms: _107  and  _108
REMARK   40  A    between atoms: _108  and  _109
REMARK   41  A    between atoms: _109  and  _110
REMARK   42  A    between atoms: _114  and  _116
REMARK   43  A    between atoms: _116  and  _117
REMARK   44  A    between atoms: _116  and  _119
REMARK   45  A    between atoms: _119  and  _120
REMARK   46  A    between atoms: _123  and  _125
REMARK   47  A    between atoms: _125  and  _126
REMARK   48  A    between atoms: _125  and  _128
REMARK   49  A    between atoms: _128  and  _129
REMARK   50  A    between atoms: _129  and  _130
REMARK   51  A    between atoms: _130  and  _131
REMARK   52  A    between atoms: _131  and  _132
REMARK   53  A    between atoms: _136  and  _138
REMARK   54  A    between atoms: _138  and  _139
REMARK   55  A    between atoms: _138  and  _141
REMARK   56  A    between atoms: _141  and  _142
REMARK   57  A    between atoms: _147  and  _149
REMARK   58  A    between atoms: _149  and  _150
REMARK   59  A    between atoms: _149  and  _152
REMARK   60  A    between atoms: _152  and  _153
REMARK   61  A    between atoms: _158  and  _160
REMARK   62  A    between atoms: _160  and  _161
REMARK   63  A    between atoms: _160  and  _163
REMARK   64  A    between atoms: _163  and  _164
REMARK   65  A    between atoms: _164  and  _165
REMARK   66  A    between atoms: _168  and  _170
REMARK   67  A    between atoms: _170  and  _171
REMARK   68  A    between atoms: _170  and  _173
REMARK   69  A    between atoms: _173  and  _174
REMARK   70  A    between atoms: _179  and  _180
REMARK   71  A    between atoms: _182  and  _184
REMARK   72  A    between atoms: _184  and  _185
REMARK   73  A    between atoms: _184  and  _187
REMARK   74  A    between atoms: _187  and  _188
REMARK   75  A    between atoms: _190  and  _192
REMARK   76  A    between atoms: _192  and  _193
REMARK   77  A    between atoms: _192  and  _195
REMARK   78  A    between atoms: _195  and  _196
REMARK   79  A    between atoms: _196  and  _197
REMARK   80  A    between atoms: _199  and  _201
REMARK   81  A    between atoms: _201  and  _202
REMARK   82  A    between atoms: _201  and  _204
REMARK   83  A    between atoms: _204  and  _205
REMARK   84  A    between atoms: _215  and  _217
REMARK   85  A    between atoms: _217  and  _218
REMARK   86  A    between atoms: _217  and  _220
REMARK   87  A    between atoms: _220  and  _221
REMARK   88  A    between atoms: _231  and  _233
REMARK   89  A    between atoms: _233  and  _234
REMARK   90  A    between atoms: _233  and  _236
REMARK   91  A    between atoms: _236  and  _237
REMARK   92  A    between atoms: _243  and  _245
REMARK   93  A    between atoms: _245  and  _246
REMARK   94  A    between atoms: _245  and  _248
REMARK   95  A    between atoms: _248  and  _249
REMARK   96  A    between atoms: _252  and  _254
REMARK   97  A    between atoms: _254  and  _255
REMARK   98  A    between atoms: _257  and  _259
REMARK   99  A    between atoms: _259  and  _260
REMARK  100  A    between atoms: _259  and  _262
REMARK  101  A    between atoms: _262  and  _263
REMARK  102  A    between atoms: _266  and  _268
REMARK  103  A    between atoms: _268  and  _269
REMARK  104  A    between atoms: _268  and  _271
REMARK  105  A    between atoms: _271  and  _272
REMARK  106  A    between atoms: _282  and  _284
REMARK  107  A    between atoms: _284  and  _285
REMARK  108  A    between atoms: _284  and  _287
REMARK  109  A    between atoms: _287  and  _288
REMARK  110  A    between atoms: _288  and  _289
REMARK  111  A    between atoms: _289  and  _290
REMARK  112  A    between atoms: _299  and  _301
REMARK  113  A    between atoms: _301  and  _302
REMARK  114  A    between atoms: _301  and  _304
REMARK  115  A    between atoms: _304  and  _305
REMARK  116  A    between atoms: _305  and  _306
REMARK  117  A    between atoms: _309  and  _311
REMARK  118  A    between atoms: _311  and  _312
REMARK  119  A    between atoms: _311  and  _314
REMARK  120  A    between atoms: _316  and  _318
REMARK  121  A    between atoms: _318  and  _319
REMARK  122  A    between atoms: _318  and  _321
REMARK  123  A    between atoms: _321  and  _322
REMARK  124  A    between atoms: _322  and  _323
REMARK  125  A    between atoms: _325  and  _327
REMARK  126  A    between atoms: _327  and  _328
REMARK  127  A    between atoms: _327  and  _330
REMARK  128  A    between atoms: _330  and  _331
REMARK  129  A    between atoms: _334  and  _336
REMARK  130  A    between atoms: _336  and  _337
REMARK  131  A    between atoms: _336  and  _339
REMARK  132  A    between atoms: _339  and  _340
REMARK  133  A    between atoms: _345  and  _347
REMARK  134  A    between atoms: _347  and  _348
REMARK  135  A    between atoms: _347  and  _350
REMARK  136  A    between atoms: _350  and  _351
REMARK  137  A    between atoms: _351  and  _352
REMARK  138  A    between atoms: _357  and  _359
REMARK  139  A    between atoms: _359  and  _360
REMARK  140  A    between atoms: _359  and  _362
REMARK  141  A    between atoms: _362  and  _363
REMARK  142  A    between atoms: _373  and  _375
REMARK  143  A    between atoms: _375  and  _376
REMARK  144  A    between atoms: _378  and  _380
REMARK  145  A    between atoms: _380  and  _381
REMARK  146  A    between atoms: _380  and  _383
REMARK  147  A    between atoms: _383  and  _384
REMARK                            x       y       z     vdW  Elec       q    Type
REMARK                         _______ _______ _______ _____ _____    ______ ____
ROOT
ATOM      1  CA  ASP A   3     -22.395   9.866  28.232  0.00  0.00    +0.160 C 
ENDROOT
BRANCH   1   4
ATOM      2  C   PHE A   2     -23.602   7.817  27.685  0.00  0.00    +0.241 C 
ATOM      3  O   PHE A   2     -23.766   7.436  28.862  0.00  0.00    -0.273 OA
ATOM      4  N   ASP A   3     -22.959   8.912  27.317  0.00  0.00    -0.297 N 
ATOM      5  H   ASP A   3     -22.854   9.095  26.299  0.00  0.00    +0.150 HD
BRANCH   2   6
ATOM      6  CA  PHE A   2     -24.193   7.042  26.547  0.00  0.00    +0.153 C 
BRANCH   6   8
ATOM      7  C   TRP A   1     -23.083   4.888  26.470  0.00  0.00    +0.239 C 
ATOM      8  N   PHE A   2     -24.167   5.607  26.741  0.00  0.00    -0.297 N 
ATOM      9  H   PHE A   2     -25.017   5.128  27.101  0.00  0.00    +0.150 HD
ATOM     10  O   TRP A   1     -22.087   5.399  26.002  0.00  0.00    -0.274 OA
BRANCH   7  11
ATOM     11  CA  TRP A   1     -23.217   3.374  26.677  0.00  0.00    +0.149 C 
BRANCH  11  12
ATOM     12  N   TRP A   1     -23.466   2.797  25.365  0.00  0.00    -0.238 NA
ATOM     13  H   TRP A   1     -22.704   2.861  24.660  0.00  0.00    +0.142 HD
ENDBRANCH  11  12
BRANCH  11  14
ATOM     14  CB  TRP A   1     -21.966   2.723  27.291  0.00  0.00    +0.054 C 
BRANCH  14  15
ATOM     15  CG  TRP A   1     -21.800   2.965  28.767  0.00  0.00    -0.002 A 
ATOM     16  CD1 TRP A   1     -22.158   2.105  29.792  0.00  0.00    +0.068 A 
ATOM     17  NE1 TRP A   1     -21.830   2.658  31.009  0.00  0.00    -0.352 N 
ATOM     18  HE1 TRP A   1     -22.019   2.224  31.935  0.00  0.00    +0.166 HD
ATOM     19  CE2 TRP A   1     -21.218   3.866  30.815  0.00  0.00    +0.056 A 
ATOM     20  CZ2 TRP A   1     -20.700   4.790  31.755  0.00  0.00    +0.017 A 
ATOM     21  CH2 TRP A   1     -20.157   5.953  31.270  0.00  0.00    +0.001 A 
ATOM     22  CZ3 TRP A   1     -20.082   6.215  29.886  0.00  0.00    +0.000 A 
ATOM     23  CE3 TRP A   1     -20.599   5.297  28.944  0.00  0.00    +0.001 A 
ATOM     24  CD2 TRP A   1     -21.176   4.101  29.407  0.00  0.00    +0.013 A 
ENDBRANCH  14  15
ENDBRANCH  11  14
ENDBRANCH   7  11
ENDBRANCH   6   8
BRANCH   6  25
ATOM     25  CB  PHE A   2     -25.629   7.505  26.347  0.00  0.00    +0.055 C 
BRANCH  25  26
ATOM     26  CG  PHE A   2     -26.204   7.071  25.042  0.00  0.00    -0.020 A 
ATOM     27  CD2 PHE A   2     -26.799   5.832  24.927  0.00  0.00    -0.004 A 
ATOM     28  CE2 PHE A   2     -27.344   5.429  23.727  0.00  0.00    -0.000 A 
ATOM     29  CZ  PHE A   2     -27.289   6.249  22.618  0.00  0.00    -0.000 A 
ATOM     30  CE1 PHE A   2     -26.675   7.471  22.702  0.00  0.00    -0.000 A 
ATOM     31  CD1 PHE A   2     -26.145   7.900  23.926  0.00  0.00    -0.004 A 
ENDBRANCH  25  26
ENDBRANCH   6  25
ENDBRANCH   2   6
ENDBRANCH   1   4
BRANCH   1  32
ATOM     32  C   ASP A   3     -22.769  11.268  27.783  0.00  0.00    +0.241 C 
ATOM     33  N   GLY A   4     -22.549  12.267  28.649  0.00  0.00    -0.295 N 
ATOM     34  H   GLY A   4     -22.227  12.047  29.613  0.00  0.00    +0.150 HD
ATOM     35  O   ASP A   3     -23.207  11.468  26.663  0.00  0.00    -0.273 OA
BRANCH  33  36
ATOM     36  CA  GLY A   4     -22.754  13.659  28.259  0.00  0.00    +0.176 C 
BRANCH  36  37
ATOM     37  C   GLY A   4     -24.202  13.976  27.927  0.00  0.00    +0.243 C 
ATOM     38  N   THR A   5     -25.084  13.459  28.762  0.00  0.00    -0.295 N 
ATOM     39  H   THR A   5     -24.733  12.888  29.557  0.00  0.00    +0.150 HD
ATOM     40  O   GLY A   4     -24.498  14.645  26.934  0.00  0.00    -0.273 OA
BRANCH  38  41
ATOM     41  CA  THR A   5     -26.511  13.643  28.631  0.00  0.00    +0.176 C 
BRANCH  41  42
ATOM     42  C   THR A   5     -27.099  14.410  29.844  0.00  0.00    +0.243 C 
ATOM     43  N   TRP A   6     -26.238  15.044  30.637  0.00  0.00    -0.298 N 
ATOM     44  H   TRP A   6     -25.237  15.089  30.359  0.00  0.00    +0.150 HD
ATOM     45  O   THR A   5     -28.314  14.351  30.079  0.00  0.00    -0.273 OA
BRANCH  43  46
ATOM     46  CA  TRP A   6     -26.664  15.695  31.917  0.00  0.00    +0.141 C 
BRANCH  46  47
ATOM     47  C   TRP A   6     -27.123  17.167  31.751  0.00  0.00    +0.227 C 
ATOM     48  O   TRP A   6     -27.668  17.747  32.677  0.00  0.00    -0.286 OA
ENDBRANCH  46  47
BRANCH  46  49
ATOM     49  CB  TRP A   6     -25.538  15.644  32.977  0.00  0.00    +0.056 C 
BRANCH  49  50
ATOM     50  CG  TRP A   6     -24.294  16.194  32.451  0.00  0.00    -0.002 A 
ATOM     51  CD1 TRP A   6     -24.047  17.496  32.170  0.00  0.00    +0.068 A 
ATOM     52  NE1 TRP A   6     -22.799  17.638  31.650  0.00  0.00    -0.352 N 
ATOM     53  CE2 TRP A   6     -22.221  16.403  31.528  0.00  0.00    +0.056 A 
ATOM     54  CZ2 TRP A   6     -20.963  16.038  31.051  0.00  0.00    +0.017 A 
ATOM     55  CH2 TRP A   6     -20.641  14.690  31.080  0.00  0.00    +0.001 A 
ATOM     56  CZ3 TRP A   6     -21.525  13.733  31.581  0.00  0.00    +0.000 A 
ATOM     57  CE3 TRP A   6     -22.795  14.099  32.036  0.00  0.00    +0.001 A 
ATOM     58  HE1 TRP A   6     -22.354  18.541  31.387  0.00  0.00    +0.166 HD
ATOM     59  CD2 TRP A   6     -23.142  15.461  32.026  0.00  0.00    +0.013 A 
ENDBRANCH  49  50
ENDBRANCH  46  49
ENDBRANCH  43  46
ENDBRANCH  41  42
BRANCH  41  60
ATOM     60  CB  THR A   5     -27.169  12.254  28.595  0.00  0.00    +0.137 C 
ATOM     61  CG2 THR A   5     -26.842  11.519  27.300  0.00  0.00    +0.034 C 
BRANCH  60  62
ATOM     62  OG1 THR A   5     -26.679  11.511  29.711  0.00  0.00    -0.382 OA
ATOM     63  HG1 THR A   5     -27.088  10.610  29.711  0.00  0.00    +0.210 HD
ENDBRANCH  60  62
ENDBRANCH  41  60
ENDBRANCH  38  41
ENDBRANCH  36  37
ENDBRANCH  33  36
ENDBRANCH   1  32
BRANCH   1  64
ATOM     64  CB  ASP A   3     -20.868   9.694  28.261  0.00  0.00    +0.143 C 
BRANCH  64  65
ATOM     65  CG  ASP A   3     -20.221  10.147  29.565  0.00  0.00    +0.367 C 
ATOM     66  OD2 ASP A   3     -20.951  10.425  30.554  0.00  0.00    -0.246 OA
ATOM     67  OD1 ASP A   3     -18.977  10.240  29.564  0.00  0.00    -0.246 OA
ENDBRANCH  64  65
ENDBRANCH   1  64
TORSDOF 22
REMARK  Name = ../refined-set-2016/4j28/4j28_pocket.pdb
REMARK  147 active torsions:
REMARK  status: ('A' for Active; 'I' for Inactive)
REMARK    1  A    between atoms: _1  and  _3
REMARK    2  A    between atoms: _3  and  _4
REMARK    3  A    between atoms: _3  and  _6
REMARK    4  A    between atoms: _6  and  _7
REMARK    5  A    between atoms: _13  and  _15
REMARK    6  A    between atoms: _15  and  _16
REMARK    7  A    between atoms: _15  and  _18
REMARK    8  A    between atoms: _18  and  _19
REMARK    9  A    between atoms: _22  and  _24
REMARK   10  A    between atoms: _24  and  _25
REMARK   11  A    between atoms: _24  and  _27
REMARK   12  A    between atoms: _27  and  _28
REMARK   13  A    between atoms: _33  and  _35
REMARK   14  A    between atoms: _35  and  _36
REMARK   15  A    between atoms: _35  and  _38
REMARK   16  A    between atoms: _38  and  _39
REMARK   17  A    between atoms: _44  and  _45
REMARK   18  A    between atoms: _47  and  _49
REMARK   19  A    between atoms: _49  and  _50
REMARK   20  A    between atoms: _53  and  _55
REMARK   21  A    between atoms: _55  and  _56
REMARK   22  A    between atoms: _59  and  _61
REMARK   23  A    between atoms: _61  and  _62
REMARK   24  A    between atoms: _61  and  _64
REMARK   25  A    between atoms: _64  and  _65
REMARK   26  A    between atoms: _65  and  _66
REMARK   27  A    between atoms: _69  and  _71
REMARK   28  A    between atoms: _71  and  _72
REMARK   29  A    between atoms: _71  and  _74
REMARK   30  A    between atoms: _74  and  _75
REMARK   31  A    between atoms: _85  and  _87
REMARK   32  A    between atoms: _87  and  _88
REMARK   33  A    between atoms: _87  and  _90
REMARK   34  A    between atoms: _90  and  _91
REMARK   35  A    between atoms: _101  and  _103
REMARK   36  A    between atoms: _103  and  _104
REMARK   37  A    between atoms: _103  and  _106
REMARK   38  A    between atoms: _106  and  _107
REMARK   39  A    between atoms: _107  and  _108
REMARK   40  A    between atoms: _108  and  _109
REMARK   41  A    between atoms: _109  and  _110
REMARK   42  A    between atoms: _114  and  _116
REMARK   43  A    between atoms: _116  and  _117
REMARK   44  A    between atoms: _116  and  _119
REMARK   45  A    between atoms: _119  and  _120
REMARK   46  A    between atoms: _123  and  _125
REMARK   47  A    between atoms: _125  and  _126
REMARK   48  A    between atoms: _125  and  _128
REMARK   49  A    between atoms: _128  and  _129
REMARK   50  A    between atoms: _129  and  _130
REMARK   51  A    between atoms: _130  and  _131
REMARK   52  A    between atoms: _131  and  _132
REMARK   53  A    between atoms: _136  and  _138
REMARK   54  A    between atoms: _138  and  _139
REMARK   55  A    between atoms: _138  and  _141
REMARK   56  A    between atoms: _141  and  _142
REMARK   57  A    between atoms: _147  and  _149
REMARK   58  A    between atoms: _149  and  _150
REMARK   59  A    between atoms: _149  and  _152
REMARK   60  A    between atoms: _152  and  _153
REMARK   61  A    between atoms: _158  and  _160
REMARK   62  A    between atoms: _160  and  _161
REMARK   63  A    between atoms: _160  and  _163
REMARK   64  A    between atoms: _163  and  _164
REMARK   65  A    between atoms: _164  and  _165
REMARK   66  A    between atoms: _168  and  _170
REMARK   67  A    between atoms: _170  and  _171
REMARK   68  A    between atoms: _170  and  _173
REMARK   69  A    between atoms: _173  and  _174
REMARK   70  A    between atoms: _179  and  _180
REMARK   71  A    between atoms: _182  and  _184
REMARK   72  A    between atoms: _184  and  _185
REMARK   73  A    between atoms: _184  and  _187
REMARK   74  A    between atoms: _187  and  _188
REMARK   75  A    between atoms: _190  and  _192
REMARK   76  A    between atoms: _192  and  _193
REMARK   77  A    between atoms: _192  and  _195
REMARK   78  A    between atoms: _195  and  _196
REMARK   79  A    between atoms: _196  and  _197
REMARK   80  A    between atoms: _199  and  _201
REMARK   81  A    between atoms: _201  and  _202
REMARK   82  A    between atoms: _201  and  _204
REMARK   83  A    between atoms: _204  and  _205
REMARK   84  A    between atoms: _215  and  _217
REMARK   85  A    between atoms: _217  and  _218
REMARK   86  A    between atoms: _217  and  _220
REMARK   87  A    between atoms: _220  and  _221
REMARK   88  A    between atoms: _231  and  _233
REMARK   89  A    between atoms: _233  and  _234
REMARK   90  A    between atoms: _233  and  _236
REMARK   91  A    between atoms: _236  and  _237
REMARK   92  A    between atoms: _243  and  _245
REMARK   93  A    between atoms: _245  and  _246
REMARK   94  A    between atoms: _245  and  _248
REMARK   95  A    between atoms: _248  and  _249
REMARK   96  A    between atoms: _252  and  _254
REMARK   97  A    between atoms: _254  and  _255
REMARK   98  A    between atoms: _257  and  _259
REMARK   99  A    between atoms: _259  and  _260
REMARK  100  A    between atoms: _259  and  _262
REMARK  101  A    between atoms: _262  and  _263
REMARK  102  A    between atoms: _266  and  _268
REMARK  103  A    between atoms: _268  and  _269
REMARK  104  A    between atoms: _268  and  _271
REMARK  105  A    between atoms: _271  and  _272
REMARK  106  A    between atoms: _282  and  _284
REMARK  107  A    between atoms: _284  and  _285
REMARK  108  A    between atoms: _284  and  _287
REMARK  109  A    between atoms: _287  and  _288
REMARK  110  A    between atoms: _288  and  _289
REMARK  111  A    between atoms: _289  and  _290
REMARK  112  A    between atoms: _299  and  _301
REMARK  113  A    between atoms: _301  and  _302
REMARK  114  A    between atoms: _301  and  _304
REMARK  115  A    between atoms: _304  and  _305
REMARK  116  A    between atoms: _305  and  _306
REMARK  117  A    between atoms: _309  and  _311
REMARK  118  A    between atoms: _311  and  _312
REMARK  119  A    between atoms: _311  and  _314
REMARK  120  A    between atoms: _316  and  _318
REMARK  121  A    between atoms: _318  and  _319
REMARK  122  A    between atoms: _318  and  _321
REMARK  123  A    between atoms: _321  and  _322
REMARK  124  A    between atoms: _322  and  _323
REMARK  125  A    between atoms: _325  and  _327
REMARK  126  A    between atoms: _327  and  _328
REMARK  127  A    between atoms: _327  and  _330
REMARK  128  A    between atoms: _330  and  _331
REMARK  129  A    between atoms: _334  and  _336
REMARK  130  A    between atoms: _336  and  _337
REMARK  131  A    between atoms: _336  and  _339
REMARK  132  A    between atoms: _339  and  _340
REMARK  133  A    between atoms: _345  and  _347
REMARK  134  A    between atoms: _347  and  _348
REMARK  135  A    between atoms: _347  and  _350
REMARK  136  A    between atoms: _350  and  _351
REMARK  137  A    between atoms: _351  and  _352
REMARK  138  A    between atoms: _357  and  _359
REMARK  139  A    between atoms: _359  and  _360
REMARK  140  A    between atoms: _359  and  _362
REMARK  141  A    between atoms: _362  and  _363
REMARK  142  A    between atoms: _373  and  _375
REMARK  143  A    between atoms: _375  and  _376
REMARK  144  A    between atoms: _378  and  _380
REMARK  145  A    between atoms: _380  and  _381
REMARK  146  A    between atoms: _380  and  _383
REMARK  147  A    between atoms: _383  and  _384
REMARK                            x       y       z     vdW  Elec       q    Type
REMARK                         _______ _______ _______ _____ _____    ______ ____
ROOT
ATOM      1  NE  ARG A   1     -23.480   8.495  33.468  0.00  0.00    -0.265 N 
ATOM      2  HE  ARG A   1     -23.880   9.230  34.086  0.00  0.00    +0.259 HD
ATOM      3  CZ  ARG A   1     -22.823   7.504  34.075  0.00  0.00    +0.342 C 
ATOM      4  NH2 ARG A   1     -22.702   7.498  35.409  0.00  0.00    -0.292 N 
ATOM      5 HH21 ARG A   1     -23.120   8.266  35.973  0.00  0.00    +0.255 HD
ATOM      6 HH22 ARG A   1     -22.190   6.726  35.881  0.00  0.00    +0.255 HD
ATOM      7  NH1 ARG A   1     -22.273   6.537  33.381  0.00  0.00    -0.292 N 
ATOM      8 HH11 ARG A   1     -21.764   5.772  33.868  0.00  0.00    +0.255 HD
ATOM      9 HH12 ARG A   1     -22.345   6.535  32.344  0.00  0.00    +0.255 HD
ENDROOT
BRANCH   1  10
ATOM     10  CD  ARG A   1     -23.702   8.664  32.026  0.00  0.00    +0.174 C 
BRANCH  10  11
ATOM     11  CG  ARG A   1     -25.175   8.721  31.693  0.00  0.00    +0.045 C 
BRANCH  11  12
ATOM     12  CB  ARG A   1     -25.792   7.345  31.678  0.00  0.00    +0.029 C 
BRANCH  12  13
ATOM     13  CA  ARG A   1     -27.331   7.327  31.746  0.00  0.00    +0.133 C 
BRANCH  13  14
ATOM     14  N   ARG A   1     -27.789   5.955  31.828  0.00  0.00    -0.239 NA
ATOM     15  H   ARG A   1     -27.104   5.175  31.769  0.00  0.00    +0.142 HD
ENDBRANCH  13  14
BRANCH  13  16
ATOM     16  C   ARG A   1     -27.924   8.104  30.566  0.00  0.00    +0.224 C 
ATOM     17  O   ARG A   1     -27.976   9.350  30.568  0.00  0.00    -0.287 OA
ENDBRANCH  13  16
ENDBRANCH  12  13
ENDBRANCH  11  12
ENDBRANCH  10  11
ENDBRANCH   1  10
TORSDOF 6
REMARK  Name = ../refined-set-2016/4j28/4j28_pocket.pdb
REMARK  147 active torsions:
REMARK  status: ('A' for Active; 'I' for Inactive)
REMARK    1  A    between atoms: _1  and  _3
REMARK    2  A    between atoms: _3  and  _4
REMARK    3  A    between atoms: _3  and  _6
REMARK    4  A    between atoms: _6  and  _7
REMARK    5  A    between atoms: _13  and  _15
REMARK    6  A    between atoms: _15  and  _16
REMARK    7  A    between atoms: _15  and  _18
REMARK    8  A    between atoms: _18  and  _19
REMARK    9  A    between atoms: _22  and  _24
REMARK   10  A    between atoms: _24  and  _25
REMARK   11  A    between atoms: _24  and  _27
REMARK   12  A    between atoms: _27  and  _28
REMARK   13  A    between atoms: _33  and  _35
REMARK   14  A    between atoms: _35  and  _36
REMARK   15  A    between atoms: _35  and  _38
REMARK   16  A    between atoms: _38  and  _39
REMARK   17  A    between atoms: _44  and  _45
REMARK   18  A    between atoms: _47  and  _49
REMARK   19  A    between atoms: _49  and  _50
REMARK   20  A    between atoms: _53  and  _55
REMARK   21  A    between atoms: _55  and  _56
REMARK   22  A    between atoms: _59  and  _61
REMARK   23  A    between atoms: _61  and  _62
REMARK   24  A    between atoms: _61  and  _64
REMARK   25  A    between atoms: _64  and  _65
REMARK   26  A    between atoms: _65  and  _66
REMARK   27  A    between atoms: _69  and  _71
REMARK   28  A    between atoms: _71  and  _72
REMARK   29  A    between atoms: _71  and  _74
REMARK   30  A    between atoms: _74  and  _75
REMARK   31  A    between atoms: _85  and  _87
REMARK   32  A    between atoms: _87  and  _88
REMARK   33  A    between atoms: _87  and  _90
REMARK   34  A    between atoms: _90  and  _91
REMARK   35  A    between atoms: _101  and  _103
REMARK   36  A    between atoms: _103  and  _104
REMARK   37  A    between atoms: _103  and  _106
REMARK   38  A    between atoms: _106  and  _107
REMARK   39  A    between atoms: _107  and  _108
REMARK   40  A    between atoms: _108  and  _109
REMARK   41  A    between atoms: _109  and  _110
REMARK   42  A    between atoms: _114  and  _116
REMARK   43  A    between atoms: _116  and  _117
REMARK   44  A    between atoms: _116  and  _119
REMARK   45  A    between atoms: _119  and  _120
REMARK   46  A    between atoms: _123  and  _125
REMARK   47  A    between atoms: _125  and  _126
REMARK   48  A    between atoms: _125  and  _128
REMARK   49  A    between atoms: _128  and  _129
REMARK   50  A    between atoms: _129  and  _130
REMARK   51  A    between atoms: _130  and  _131
REMARK   52  A    between atoms: _131  and  _132
REMARK   53  A    between atoms: _136  and  _138
REMARK   54  A    between atoms: _138  and  _139
REMARK   55  A    between atoms: _138  and  _141
REMARK   56  A    between atoms: _141  and  _142
REMARK   57  A    between atoms: _147  and  _149
REMARK   58  A    between atoms: _149  and  _150
REMARK   59  A    between atoms: _149  and  _152
REMARK   60  A    between atoms: _152  and  _153
REMARK   61  A    between atoms: _158  and  _160
REMARK   62  A    between atoms: _160  and  _161
REMARK   63  A    between atoms: _160  and  _163
REMARK   64  A    between atoms: _163  and  _164
REMARK   65  A    between atoms: _164  and  _165
REMARK   66  A    between atoms: _168  and  _170
REMARK   67  A    between atoms: _170  and  _171
REMARK   68  A    between atoms: _170  and  _173
REMARK   69  A    between atoms: _173  and  _174
REMARK   70  A    between atoms: _179  and  _180
REMARK   71  A    between atoms: _182  and  _184
REMARK   72  A    between atoms: _184  and  _185
REMARK   73  A    between atoms: _184  and  _187
REMARK   74  A    between atoms: _187  and  _188
REMARK   75  A    between atoms: _190  and  _192
REMARK   76  A    between atoms: _192  and  _193
REMARK   77  A    between atoms: _192  and  _195
REMARK   78  A    between atoms: _195  and  _196
REMARK   79  A    between atoms: _196  and  _197
REMARK   80  A    between atoms: _199  and  _201
REMARK   81  A    between atoms: _201  and  _202
REMARK   82  A    between atoms: _201  and  _204
REMARK   83  A    between atoms: _204  and  _205
REMARK   84  A    between atoms: _215  and  _217
REMARK   85  A    between atoms: _217  and  _218
REMARK   86  A    between atoms: _217  and  _220
REMARK   87  A    between atoms: _220  and  _221
REMARK   88  A    between atoms: _231  and  _233
REMARK   89  A    between atoms: _233  and  _234
REMARK   90  A    between atoms: _233  and  _236
REMARK   91  A    between atoms: _236  and  _237
REMARK   92  A    between atoms: _243  and  _245
REMARK   93  A    between atoms: _245  and  _246
REMARK   94  A    between atoms: _245  and  _248
REMARK   95  A    between atoms: _248  and  _249
REMARK   96  A    between atoms: _252  and  _254
REMARK   97  A    between atoms: _254  and  _255
REMARK   98  A    between atoms: _257  and  _259
REMARK   99  A    between atoms: _259  and  _260
REMARK  100  A    between atoms: _259  and  _262
REMARK  101  A    between atoms: _262  and  _263
REMARK  102  A    between atoms: _266  and  _268
REMARK  103  A    between atoms: _268  and  _269
REMARK  104  A    between atoms: _268  and  _271
REMARK  105  A    between atoms: _271  and  _272
REMARK  106  A    between atoms: _282  and  _284
REMARK  107  A    between atoms: _284  and  _285
REMARK  108  A    between atoms: _284  and  _287
REMARK  109  A    between atoms: _287  and  _288
REMARK  110  A    between atoms: _288  and  _289
REMARK  111  A    between atoms: _289  and  _290
REMARK  112  A    between atoms: _299  and  _301
REMARK  113  A    between atoms: _301  and  _302
REMARK  114  A    between atoms: _301  and  _304
REMARK  115  A    between atoms: _304  and  _305
REMARK  116  A    between atoms: _305  and  _306
REMARK  117  A    between atoms: _309  and  _311
REMARK  118  A    between atoms: _311  and  _312
REMARK  119  A    between atoms: _311  and  _314
REMARK  120  A    between atoms: _316  and  _318
REMARK  121  A    between atoms: _318  and  _319
REMARK  122  A    between atoms: _318  and  _321
REMARK  123  A    between atoms: _321  and  _322
REMARK  124  A    between atoms: _322  and  _323
REMARK  125  A    between atoms: _325  and  _327
REMARK  126  A    between atoms: _327  and  _328
REMARK  127  A    between atoms: _327  and  _330
REMARK  128  A    between atoms: _330  and  _331
REMARK  129  A    between atoms: _334  and  _336
REMARK  130  A    between atoms: _336  and  _337
REMARK  131  A    between atoms: _336  and  _339
REMARK  132  A    between atoms: _339  and  _340
REMARK  133  A    between atoms: _345  and  _347
REMARK  134  A    between atoms: _347  and  _348
REMARK  135  A    between atoms: _347  and  _350
REMARK  136  A    between atoms: _350  and  _351
REMARK  137  A    between atoms: _351  and  _352
REMARK  138  A    between atoms: _357  and  _359
REMARK  139  A    between atoms: _359  and  _360
REMARK  140  A    between atoms: _359  and  _362
REMARK  141  A    between atoms: _362  and  _363
REMARK  142  A    between atoms: _373  and  _375
REMARK  143  A    between atoms: _375  and  _376
REMARK  144  A    between atoms: _378  and  _380
REMARK  145  A    between atoms: _380  and  _381
REMARK  146  A    between atoms: _380  and  _383
REMARK  147  A    between atoms: _383  and  _384
REMARK                            x       y       z     vdW  Elec       q    Type
REMARK                         _______ _______ _______ _____ _____    ______ ____
ROOT
ATOM      1  CA  GLU A   1     -17.530   4.967  38.887  0.00  0.00    +0.134 C 
ENDROOT
BRANCH   1   2
ATOM      2  N   GLU A   1     -18.854   4.717  39.494  0.00  0.00    -0.239 NA
ATOM      3  H   GLU A   1     -19.165   5.355  40.254  0.00  0.00    +0.142 HD
ENDBRANCH   1   2
BRANCH   1   4
ATOM      4  C   GLU A   1     -16.430   5.119  39.941  0.00  0.00    +0.224 C 
ATOM      5  O   GLU A   1     -15.382   4.485  39.867  0.00  0.00    -0.287 OA
ENDBRANCH   1   4
BRANCH   1   6
ATOM      6  CB  GLU A   1     -17.543   6.218  38.023  0.00  0.00    +0.037 C 
BRANCH   6   7
ATOM      7  CG  GLU A   1     -18.426   6.223  36.765  0.00  0.00    +0.116 C 
BRANCH   7   8
ATOM      8  CD  GLU A   1     -18.209   7.487  35.882  0.00  0.00    +0.365 C 
ATOM      9  OE2 GLU A   1     -17.352   8.316  36.229  0.00  0.00    -0.246 OA
ATOM     10  OE1 GLU A   1     -18.855   7.700  34.825  0.00  0.00    -0.246 OA
ENDBRANCH   7   8
ENDBRANCH   6   7
ENDBRANCH   1   6
TORSDOF 5
REMARK  Name = ../refined-set-2016/4j28/4j28_pocket.pdb
REMARK  147 active torsions:
REMARK  status: ('A' for Active; 'I' for Inactive)
REMARK    1  A    between atoms: _1  and  _3
REMARK    2  A    between atoms: _3  and  _4
REMARK    3  A    between atoms: _3  and  _6
REMARK    4  A    between atoms: _6  and  _7
REMARK    5  A    between atoms: _13  and  _15
REMARK    6  A    between atoms: _15  and  _16
REMARK    7  A    between atoms: _15  and  _18
REMARK    8  A    between atoms: _18  and  _19
REMARK    9  A    between atoms: _22  and  _24
REMARK   10  A    between atoms: _24  and  _25
REMARK   11  A    between atoms: _24  and  _27
REMARK   12  A    between atoms: _27  and  _28
REMARK   13  A    between atoms: _33  and  _35
REMARK   14  A    between atoms: _35  and  _36
REMARK   15  A    between atoms: _35  and  _38
REMARK   16  A    between atoms: _38  and  _39
REMARK   17  A    between atoms: _44  and  _45
REMARK   18  A    between atoms: _47  and  _49
REMARK   19  A    between atoms: _49  and  _50
REMARK   20  A    between atoms: _53  and  _55
REMARK   21  A    between atoms: _55  and  _56
REMARK   22  A    between atoms: _59  and  _61
REMARK   23  A    between atoms: _61  and  _62
REMARK   24  A    between atoms: _61  and  _64
REMARK   25  A    between atoms: _64  and  _65
REMARK   26  A    between atoms: _65  and  _66
REMARK   27  A    between atoms: _69  and  _71
REMARK   28  A    between atoms: _71  and  _72
REMARK   29  A    between atoms: _71  and  _74
REMARK   30  A    between atoms: _74  and  _75
REMARK   31  A    between atoms: _85  and  _87
REMARK   32  A    between atoms: _87  and  _88
REMARK   33  A    between atoms: _87  and  _90
REMARK   34  A    between atoms: _90  and  _91
REMARK   35  A    between atoms: _101  and  _103
REMARK   36  A    between atoms: _103  and  _104
REMARK   37  A    between atoms: _103  and  _106
REMARK   38  A    between atoms: _106  and  _107
REMARK   39  A    between atoms: _107  and  _108
REMARK   40  A    between atoms: _108  and  _109
REMARK   41  A    between atoms: _109  and  _110
REMARK   42  A    between atoms: _114  and  _116
REMARK   43  A    between atoms: _116  and  _117
REMARK   44  A    between atoms: _116  and  _119
REMARK   45  A    between atoms: _119  and  _120
REMARK   46  A    between atoms: _123  and  _125
REMARK   47  A    between atoms: _125  and  _126
REMARK   48  A    between atoms: _125  and  _128
REMARK   49  A    between atoms: _128  and  _129
REMARK   50  A    between atoms: _129  and  _130
REMARK   51  A    between atoms: _130  and  _131
REMARK   52  A    between atoms: _131  and  _132
REMARK   53  A    between atoms: _136  and  _138
REMARK   54  A    between atoms: _138  and  _139
REMARK   55  A    between atoms: _138  and  _141
REMARK   56  A    between atoms: _141  and  _142
REMARK   57  A    between atoms: _147  and  _149
REMARK   58  A    between atoms: _149  and  _150
REMARK   59  A    between atoms: _149  and  _152
REMARK   60  A    between atoms: _152  and  _153
REMARK   61  A    between atoms: _158  and  _160
REMARK   62  A    between atoms: _160  and  _161
REMARK   63  A    between atoms: _160  and  _163
REMARK   64  A    between atoms: _163  and  _164
REMARK   65  A    between atoms: _164  and  _165
REMARK   66  A    between atoms: _168  and  _170
REMARK   67  A    between atoms: _170  and  _171
REMARK   68  A    between atoms: _170  and  _173
REMARK   69  A    between atoms: _173  and  _174
REMARK   70  A    between atoms: _179  and  _180
REMARK   71  A    between atoms: _182  and  _184
REMARK   72  A    between atoms: _184  and  _185
REMARK   73  A    between atoms: _184  and  _187
REMARK   74  A    between atoms: _187  and  _188
REMARK   75  A    between atoms: _190  and  _192
REMARK   76  A    between atoms: _192  and  _193
REMARK   77  A    between atoms: _192  and  _195
REMARK   78  A    between atoms: _195  and  _196
REMARK   79  A    between atoms: _196  and  _197
REMARK   80  A    between atoms: _199  and  _201
REMARK   81  A    between atoms: _201  and  _202
REMARK   82  A    between atoms: _201  and  _204
REMARK   83  A    between atoms: _204  and  _205
REMARK   84  A    between atoms: _215  and  _217
REMARK   85  A    between atoms: _217  and  _218
REMARK   86  A    between atoms: _217  and  _220
REMARK   87  A    between atoms: _220  and  _221
REMARK   88  A    between atoms: _231  and  _233
REMARK   89  A    between atoms: _233  and  _234
REMARK   90  A    between atoms: _233  and  _236
REMARK   91  A    between atoms: _236  and  _237
REMARK   92  A    between atoms: _243  and  _245
REMARK   93  A    between atoms: _245  and  _246
REMARK   94  A    between atoms: _245  and  _248
REMARK   95  A    between atoms: _248  and  _249
REMARK   96  A    between atoms: _252  and  _254
REMARK   97  A    between atoms: _254  and  _255
REMARK   98  A    between atoms: _257  and  _259
REMARK   99  A    between atoms: _259  and  _260
REMARK  100  A    between atoms: _259  and  _262
REMARK  101  A    between atoms: _262  and  _263
REMARK  102  A    between atoms: _266  and  _268
REMARK  103  A    between atoms: _268  and  _269
REMARK  104  A    between atoms: _268  and  _271
REMARK  105  A    between atoms: _271  and  _272
REMARK  106  A    between atoms: _282  and  _284
REMARK  107  A    between atoms: _284  and  _285
REMARK  108  A    between atoms: _284  and  _287
REMARK  109  A    between atoms: _287  and  _288
REMARK  110  A    between atoms: _288  and  _289
REMARK  111  A    between atoms: _289  and  _290
REMARK  112  A    between atoms: _299  and  _301
REMARK  113  A    between atoms: _301  and  _302
REMARK  114  A    between atoms: _301  and  _304
REMARK  115  A    between atoms: _304  and  _305
REMARK  116  A    between atoms: _305  and  _306
REMARK  117  A    between atoms: _309  and  _311
REMARK  118  A    between atoms: _311  and  _312
REMARK  119  A    between atoms: _311  and  _314
REMARK  120  A    between atoms: _316  and  _318
REMARK  121  A    between atoms: _318  and  _319
REMARK  122  A    between atoms: _318  and  _321
REMARK  123  A    between atoms: _321  and  _322
REMARK  124  A    between atoms: _322  and  _323
REMARK  125  A    between atoms: _325  and  _327
REMARK  126  A    between atoms: _327  and  _328
REMARK  127  A    between atoms: _327  and  _330
REMARK  128  A    between atoms: _330  and  _331
REMARK  129  A    between atoms: _334  and  _336
REMARK  130  A    between atoms: _336  and  _337
REMARK  131  A    between atoms: _336  and  _339
REMARK  132  A    between atoms: _339  and  _340
REMARK  133  A    between atoms: _345  and  _347
REMARK  134  A    between atoms: _347  and  _348
REMARK  135  A    between atoms: _347  and  _350
REMARK  136  A    between atoms: _350  and  _351
REMARK  137  A    between atoms: _351  and  _352
REMARK  138  A    between atoms: _357  and  _359
REMARK  139  A    between atoms: _359  and  _360
REMARK  140  A    between atoms: _359  and  _362
REMARK  141  A    between atoms: _362  and  _363
REMARK  142  A    between atoms: _373  and  _375
REMARK  143  A    between atoms: _375  and  _376
REMARK  144  A    between atoms: _378  and  _380
REMARK  145  A    between atoms: _380  and  _381
REMARK  146  A    between atoms: _380  and  _383
REMARK  147  A    between atoms: _383  and  _384
REMARK                            x       y       z     vdW  Elec       q    Type
REMARK                         _______ _______ _______ _____ _____    ______ ____
ROOT
ATOM      1  CA  MET A   2     -13.338   2.260  36.917  0.00  0.00    +0.149 C 
ENDROOT
BRANCH   1   4
ATOM      2  C   CYS A   1     -15.610   2.050  36.145  0.00  0.00    +0.239 C 
ATOM      3  O   CYS A   1     -15.948   2.881  36.960  0.00  0.00    -0.274 OA
ATOM      4  N   MET A   2     -14.332   1.713  35.993  0.00  0.00    -0.297 N 
ATOM      5  H   MET A   2     -14.044   1.070  35.228  0.00  0.00    +0.150 HD
BRANCH   2   6
ATOM      6  CA  CYS A   1     -16.666   1.351  35.255  0.00  0.00    +0.156 C 
BRANCH   6   7
ATOM      7  N   CYS A   1     -17.855   1.110  36.060  0.00  0.00    -0.237 NA
ATOM      8  H   CYS A   1     -18.320   1.914  36.528  0.00  0.00    +0.142 HD
ENDBRANCH   6   7
BRANCH   6   9
ATOM      9  CB  CYS A   1     -17.029   2.128  33.986  0.00  0.00    +0.095 C 
ATOM     10  SG  CYS A   1     -18.311   1.417  32.873  0.00  0.00    -0.080 S 
ENDBRANCH   6   9
ENDBRANCH   2   6
ENDBRANCH   1   4
BRANCH   1  11
ATOM     11  C   MET A   2     -12.066   2.617  36.191  0.00  0.00    +0.241 C 
ATOM     12  N   THR A   3     -11.398   3.631  36.717  0.00  0.00    -0.296 N 
ATOM     13  H   THR A   3     -11.833   4.169  37.494  0.00  0.00    +0.150 HD
ATOM     14  O   MET A   2     -11.719   2.012  35.192  0.00  0.00    -0.273 OA
BRANCH  12  15
ATOM     15  CA  THR A   3     -10.067   4.024  36.245  0.00  0.00    +0.164 C 
BRANCH  15  16
ATOM     16  C   THR A   3      -8.986   3.400  37.105  0.00  0.00    +0.229 C 
ATOM     17  O   THR A   3      -9.211   3.040  38.253  0.00  0.00    -0.286 OA
ENDBRANCH  15  16
BRANCH  15  18
ATOM     18  CB  THR A   3      -9.954   5.548  36.294  0.00  0.00    +0.136 C 
ATOM     19  CG2 THR A   3     -10.925   6.180  35.338  0.00  0.00    +0.034 C 
BRANCH  18  20
ATOM     20  OG1 THR A   3     -10.283   6.022  37.607  0.00  0.00    -0.382 OA
ATOM     21  HG1 THR A   3      -9.658   5.627  38.265  0.00  0.00    +0.210 HD
ENDBRANCH  18  20
ENDBRANCH  15  18
ENDBRANCH  12  15
ENDBRANCH   1  11
BRANCH   1  22
ATOM     22  CB  MET A   2     -13.017   1.255  38.028  0.00  0.00    +0.041 C 
BRANCH  22  23
ATOM     23  CG  MET A   2     -12.484  -0.057  37.496  0.00  0.00    +0.060 C 
BRANCH  23  24
ATOM     24  SD  MET A   2     -11.692  -1.008  38.798  0.00  0.00    -0.139 S 
ATOM     25  CE  MET A   2     -10.022  -0.477  38.475  0.00  0.00    +0.069 C 
ENDBRANCH  23  24
ENDBRANCH  22  23
ENDBRANCH   1  22
TORSDOF 12
REMARK  Name = ../refined-set-2016/4j28/4j28_pocket.pdb
REMARK  147 active torsions:
REMARK  status: ('A' for Active; 'I' for Inactive)
REMARK    1  A    between atoms: _1  and  _3
REMARK    2  A    between atoms: _3  and  _4
REMARK    3  A    between atoms: _3  and  _6
REMARK    4  A    between atoms: _6  and  _7
REMARK    5  A    between atoms: _13  and  _15
REMARK    6  A    between atoms: _15  and  _16
REMARK    7  A    between atoms: _15  and  _18
REMARK    8  A    between atoms: _18  and  _19
REMARK    9  A    between atoms: _22  and  _24
REMARK   10  A    between atoms: _24  and  _25
REMARK   11  A    between atoms: _24  and  _27
REMARK   12  A    between atoms: _27  and  _28
REMARK   13  A    between atoms: _33  and  _35
REMARK   14  A    between atoms: _35  and  _36
REMARK   15  A    between atoms: _35  and  _38
REMARK   16  A    between atoms: _38  and  _39
REMARK   17  A    between atoms: _44  and  _45
REMARK   18  A    between atoms: _47  and  _49
REMARK   19  A    between atoms: _49  and  _50
REMARK   20  A    between atoms: _53  and  _55
REMARK   21  A    between atoms: _55  and  _56
REMARK   22  A    between atoms: _59  and  _61
REMARK   23  A    between atoms: _61  and  _62
REMARK   24  A    between atoms: _61  and  _64
REMARK   25  A    between atoms: _64  and  _65
REMARK   26  A    between atoms: _65  and  _66
REMARK   27  A    between atoms: _69  and  _71
REMARK   28  A    between atoms: _71  and  _72
REMARK   29  A    between atoms: _71  and  _74
REMARK   30  A    between atoms: _74  and  _75
REMARK   31  A    between atoms: _85  and  _87
REMARK   32  A    between atoms: _87  and  _88
REMARK   33  A    between atoms: _87  and  _90
REMARK   34  A    between atoms: _90  and  _91
REMARK   35  A    between atoms: _101  and  _103
REMARK   36  A    between atoms: _103  and  _104
REMARK   37  A    between atoms: _103  and  _106
REMARK   38  A    between atoms: _106  and  _107
REMARK   39  A    between atoms: _107  and  _108
REMARK   40  A    between atoms: _108  and  _109
REMARK   41  A    between atoms: _109  and  _110
REMARK   42  A    between atoms: _114  and  _116
REMARK   43  A    between atoms: _116  and  _117
REMARK   44  A    between atoms: _116  and  _119
REMARK   45  A    between atoms: _119  and  _120
REMARK   46  A    between atoms: _123  and  _125
REMARK   47  A    between atoms: _125  and  _126
REMARK   48  A    between atoms: _125  and  _128
REMARK   49  A    between atoms: _128  and  _129
REMARK   50  A    between atoms: _129  and  _130
REMARK   51  A    between atoms: _130  and  _131
REMARK   52  A    between atoms: _131  and  _132
REMARK   53  A    between atoms: _136  and  _138
REMARK   54  A    between atoms: _138  and  _139
REMARK   55  A    between atoms: _138  and  _141
REMARK   56  A    between atoms: _141  and  _142
REMARK   57  A    between atoms: _147  and  _149
REMARK   58  A    between atoms: _149  and  _150
REMARK   59  A    between atoms: _149  and  _152
REMARK   60  A    between atoms: _152  and  _153
REMARK   61  A    between atoms: _158  and  _160
REMARK   62  A    between atoms: _160  and  _161
REMARK   63  A    between atoms: _160  and  _163
REMARK   64  A    between atoms: _163  and  _164
REMARK   65  A    between atoms: _164  and  _165
REMARK   66  A    between atoms: _168  and  _170
REMARK   67  A    between atoms: _170  and  _171
REMARK   68  A    between atoms: _170  and  _173
REMARK   69  A    between atoms: _173  and  _174
REMARK   70  A    between atoms: _179  and  _180
REMARK   71  A    between atoms: _182  and  _184
REMARK   72  A    between atoms: _184  and  _185
REMARK   73  A    between atoms: _184  and  _187
REMARK   74  A    between atoms: _187  and  _188
REMARK   75  A    between atoms: _190  and  _192
REMARK   76  A    between atoms: _192  and  _193
REMARK   77  A    between atoms: _192  and  _195
REMARK   78  A    between atoms: _195  and  _196
REMARK   79  A    between atoms: _196  and  _197
REMARK   80  A    between atoms: _199  and  _201
REMARK   81  A    between atoms: _201  and  _202
REMARK   82  A    between atoms: _201  and  _204
REMARK   83  A    between atoms: _204  and  _205
REMARK   84  A    between atoms: _215  and  _217
REMARK   85  A    between atoms: _217  and  _218
REMARK   86  A    between atoms: _217  and  _220
REMARK   87  A    between atoms: _220  and  _221
REMARK   88  A    between atoms: _231  and  _233
REMARK   89  A    between atoms: _233  and  _234
REMARK   90  A    between atoms: _233  and  _236
REMARK   91  A    between atoms: _236  and  _237
REMARK   92  A    between atoms: _243  and  _245
REMARK   93  A    between atoms: _245  and  _246
REMARK   94  A    between atoms: _245  and  _248
REMARK   95  A    between atoms: _248  and  _249
REMARK   96  A    between atoms: _252  and  _254
REMARK   97  A    between atoms: _254  and  _255
REMARK   98  A    between atoms: _257  and  _259
REMARK   99  A    between atoms: _259  and  _260
REMARK  100  A    between atoms: _259  and  _262
REMARK  101  A    between atoms: _262  and  _263
REMARK  102  A    between atoms: _266  and  _268
REMARK  103  A    between atoms: _268  and  _269
REMARK  104  A    between atoms: _268  and  _271
REMARK  105  A    between atoms: _271  and  _272
REMARK  106  A    between atoms: _282  and  _284
REMARK  107  A    between atoms: _284  and  _285
REMARK  108  A    between atoms: _284  and  _287
REMARK  109  A    between atoms: _287  and  _288
REMARK  110  A    between atoms: _288  and  _289
REMARK  111  A    between atoms: _289  and  _290
REMARK  112  A    between atoms: _299  and  _301
REMARK  113  A    between atoms: _301  and  _302
REMARK  114  A    between atoms: _301  and  _304
REMARK  115  A    between atoms: _304  and  _305
REMARK  116  A    between atoms: _305  and  _306
REMARK  117  A    between atoms: _309  and  _311
REMARK  118  A    between atoms: _311  and  _312
REMARK  119  A    between atoms: _311  and  _314
REMARK  120  A    between atoms: _316  and  _318
REMARK  121  A    between atoms: _318  and  _319
REMARK  122  A    between atoms: _318  and  _321
REMARK  123  A    between atoms: _321  and  _322
REMARK  124  A    between atoms: _322  and  _323
REMARK  125  A    between atoms: _325  and  _327
REMARK  126  A    between atoms: _327  and  _328
REMARK  127  A    between atoms: _327  and  _330
REMARK  128  A    between atoms: _330  and  _331
REMARK  129  A    between atoms: _334  and  _336
REMARK  130  A    between atoms: _336  and  _337
REMARK  131  A    between atoms: _336  and  _339
REMARK  132  A    between atoms: _339  and  _340
REMARK  133  A    between atoms: _345  and  _347
REMARK  134  A    between atoms: _347  and  _348
REMARK  135  A    between atoms: _347  and  _350
REMARK  136  A    between atoms: _350  and  _351
REMARK  137  A    between atoms: _351  and  _352
REMARK  138  A    between atoms: _357  and  _359
REMARK  139  A    between atoms: _359  and  _360
REMARK  140  A    between atoms: _359  and  _362
REMARK  141  A    between atoms: _362  and  _363
REMARK  142  A    between atoms: _373  and  _375
REMARK  143  A    between atoms: _375  and  _376
REMARK  144  A    between atoms: _378  and  _380
REMARK  145  A    between atoms: _380  and  _381
REMARK  146  A    between atoms: _380  and  _383
REMARK  147  A    between atoms: _383  and  _384
REMARK                            x       y       z     vdW  Elec       q    Type
REMARK                         _______ _______ _______ _____ _____    ______ ____
ROOT
ATOM      1  C   GLN A   2      -8.385   8.588  33.503  0.00  0.00    +0.241 C 
ATOM      2  O   GLN A   2      -8.206   7.382  33.786  0.00  0.00    -0.273 OA
ATOM      3  N   TRP A   3      -9.128   8.990  32.468  0.00  0.00    -0.297 N 
ATOM      4  H   TRP A   3      -9.312  10.004  32.329  0.00  0.00    +0.150 HD
ENDROOT
BRANCH   1   5
ATOM      5  CA  GLN A   2      -7.799   9.691  34.374  0.00  0.00    +0.149 C 
BRANCH   5   8
ATOM      6  C   ASN A   1      -8.793  10.506  36.450  0.00  0.00    +0.239 C 
ATOM      7  O   ASN A   1      -8.677  11.675  36.135  0.00  0.00    -0.274 OA
ATOM      8  N   GLN A   2      -8.341   9.515  35.711  0.00  0.00    -0.297 N 
ATOM      9  H   GLN A   2      -8.373   8.553  36.105  0.00  0.00    +0.150 HD
BRANCH   6  10
ATOM     10  CA  ASN A   1      -9.452  10.100  37.777  0.00  0.00    +0.154 C 
BRANCH  10  11
ATOM     11  N   ASN A   1      -8.493   9.461  38.663  0.00  0.00    -0.238 NA
ATOM     12  H   ASN A   1      -7.473   9.628  38.547  0.00  0.00    +0.142 HD
ENDBRANCH  10  11
BRANCH  10  13
ATOM     13  CB  ASN A   1     -10.109  11.327  38.423  0.00  0.00    +0.111 C 
BRANCH  13  14
ATOM     14  CG  ASN A   1     -11.280  11.862  37.598  0.00  0.00    +0.221 C 
ATOM     15  ND2 ASN A   1     -11.597  13.119  37.813  0.00  0.00    -0.329 N 
ATOM     16 HD21 ASN A   1     -11.090  13.666  38.538  0.00  0.00    +0.145 HD
ATOM     17 HD22 ASN A   1     -12.354  13.566  37.258  0.00  0.00    +0.145 HD
ATOM     18  OD1 ASN A   1     -11.859  11.175  36.744  0.00  0.00    -0.275 OA
ENDBRANCH  13  14
ENDBRANCH  10  13
ENDBRANCH   6  10
ENDBRANCH   5   8
BRANCH   5  19
ATOM     19  CB  GLN A   2      -6.284   9.528  34.357  0.00  0.00    +0.039 C 
BRANCH  19  20
ATOM     20  CG  GLN A   2      -5.521  10.633  35.061  0.00  0.00    +0.087 C 
BRANCH  20  21
ATOM     21  CD  GLN A   2      -5.757  12.002  34.454  0.00  0.00    +0.219 C 
ATOM     22  NE2 GLN A   2      -5.513  13.082  35.238  0.00  0.00    -0.329 N 
ATOM     23 HE21 GLN A   2      -5.224  12.951  36.228  0.00  0.00    +0.145 HD
ATOM     24 HE22 GLN A   2      -5.615  14.041  34.849  0.00  0.00    +0.145 HD
ATOM     25  OE1 GLN A   2      -6.097  12.087  33.292  0.00  0.00    -0.275 OA
ENDBRANCH  20  21
ENDBRANCH  19  20
ENDBRANCH   5  19
ENDBRANCH   1   5
BRANCH   3  26
ATOM     26  CA  TRP A   3      -9.680   8.026  31.538  0.00  0.00    +0.153 C 
BRANCH  26  27
ATOM     27  C   TRP A   3      -8.863   7.978  30.255  0.00  0.00    +0.241 C 
ATOM     28  O   TRP A   3      -8.352   6.904  29.871  0.00  0.00    -0.273 OA
ATOM     29  N   GLY A   4      -8.715   9.126  29.570  0.00  0.00    -0.296 N 
ATOM     30  H   GLY A   4      -9.295   9.952  29.819  0.00  0.00    +0.150 HD
BRANCH  29  31
ATOM     31  CA  GLY A   4      -7.742   9.225  28.473  0.00  0.00    +0.163 C 
BRANCH  31  32
ATOM     32  C   GLY A   4      -6.326   9.130  28.974  0.00  0.00    +0.229 C 
ATOM     33  O   GLY A   4      -6.059   9.263  30.169  0.00  0.00    -0.286 OA
ENDBRANCH  31  32
ENDBRANCH  29  31
ENDBRANCH  26  27
BRANCH  26  34
ATOM     34  CB  TRP A   3     -11.161   8.323  31.274  0.00  0.00    +0.057 C 
BRANCH  34  35
ATOM     35  CG  TRP A   3     -12.035   8.278  32.428  0.00  0.00    -0.002 A 
ATOM     36  CD1 TRP A   3     -12.331   9.313  33.287  0.00  0.00    +0.068 A 
ATOM     37  NE1 TRP A   3     -13.251   8.907  34.191  0.00  0.00    -0.352 N 
ATOM     38  HE1 TRP A   3     -13.655   9.506  34.939  0.00  0.00    +0.166 HD
ATOM     39  CE2 TRP A   3     -13.574   7.592  33.979  0.00  0.00    +0.056 A 
ATOM     40  CZ2 TRP A   3     -14.502   6.762  34.647  0.00  0.00    +0.017 A 
ATOM     41  CH2 TRP A   3     -14.601   5.450  34.224  0.00  0.00    +0.001 A 
ATOM     42  CZ3 TRP A   3     -13.883   4.997  33.119  0.00  0.00    +0.000 A 
ATOM     43  CE3 TRP A   3     -13.020   5.847  32.413  0.00  0.00    +0.001 A 
ATOM     44  CD2 TRP A   3     -12.850   7.160  32.861  0.00  0.00    +0.013 A 
ENDBRANCH  34  35
ENDBRANCH  26  34
ENDBRANCH   3  26
TORSDOF 15
REMARK  Name = ../refined-set-2016/4j28/4j28_pocket.pdb
REMARK  147 active torsions:
REMARK  status: ('A' for Active; 'I' for Inactive)
REMARK    1  A    between atoms: _1  and  _3
REMARK    2  A    between atoms: _3  and  _4
REMARK    3  A    between atoms: _3  and  _6
REMARK    4  A    between atoms: _6  and  _7
REMARK    5  A    between atoms: _13  and  _15
REMARK    6  A    between atoms: _15  and  _16
REMARK    7  A    between atoms: _15  and  _18
REMARK    8  A    between atoms: _18  and  _19
REMARK    9  A    between atoms: _22  and  _24
REMARK   10  A    between atoms: _24  and  _25
REMARK   11  A    between atoms: _24  and  _27
REMARK   12  A    between atoms: _27  and  _28
REMARK   13  A    between atoms: _33  and  _35
REMARK   14  A    between atoms: _35  and  _36
REMARK   15  A    between atoms: _35  and  _38
REMARK   16  A    between atoms: _38  and  _39
REMARK   17  A    between atoms: _44  and  _45
REMARK   18  A    between atoms: _47  and  _49
REMARK   19  A    between atoms: _49  and  _50
REMARK   20  A    between atoms: _53  and  _55
REMARK   21  A    between atoms: _55  and  _56
REMARK   22  A    between atoms: _59  and  _61
REMARK   23  A    between atoms: _61  and  _62
REMARK   24  A    between atoms: _61  and  _64
REMARK   25  A    between atoms: _64  and  _65
REMARK   26  A    between atoms: _65  and  _66
REMARK   27  A    between atoms: _69  and  _71
REMARK   28  A    between atoms: _71  and  _72
REMARK   29  A    between atoms: _71  and  _74
REMARK   30  A    between atoms: _74  and  _75
REMARK   31  A    between atoms: _85  and  _87
REMARK   32  A    between atoms: _87  and  _88
REMARK   33  A    between atoms: _87  and  _90
REMARK   34  A    between atoms: _90  and  _91
REMARK   35  A    between atoms: _101  and  _103
REMARK   36  A    between atoms: _103  and  _104
REMARK   37  A    between atoms: _103  and  _106
REMARK   38  A    between atoms: _106  and  _107
REMARK   39  A    between atoms: _107  and  _108
REMARK   40  A    between atoms: _108  and  _109
REMARK   41  A    between atoms: _109  and  _110
REMARK   42  A    between atoms: _114  and  _116
REMARK   43  A    between atoms: _116  and  _117
REMARK   44  A    between atoms: _116  and  _119
REMARK   45  A    between atoms: _119  and  _120
REMARK   46  A    between atoms: _123  and  _125
REMARK   47  A    between atoms: _125  and  _126
REMARK   48  A    between atoms: _125  and  _128
REMARK   49  A    between atoms: _128  and  _129
REMARK   50  A    between atoms: _129  and  _130
REMARK   51  A    between atoms: _130  and  _131
REMARK   52  A    between atoms: _131  and  _132
REMARK   53  A    between atoms: _136  and  _138
REMARK   54  A    between atoms: _138  and  _139
REMARK   55  A    between atoms: _138  and  _141
REMARK   56  A    between atoms: _141  and  _142
REMARK   57  A    between atoms: _147  and  _149
REMARK   58  A    between atoms: _149  and  _150
REMARK   59  A    between atoms: _149  and  _152
REMARK   60  A    between atoms: _152  and  _153
REMARK   61  A    between atoms: _158  and  _160
REMARK   62  A    between atoms: _160  and  _161
REMARK   63  A    between atoms: _160  and  _163
REMARK   64  A    between atoms: _163  and  _164
REMARK   65  A    between atoms: _164  and  _165
REMARK   66  A    between atoms: _168  and  _170
REMARK   67  A    between atoms: _170  and  _171
REMARK   68  A    between atoms: _170  and  _173
REMARK   69  A    between atoms: _173  and  _174
REMARK   70  A    between atoms: _179  and  _180
REMARK   71  A    between atoms: _182  and  _184
REMARK   72  A    between atoms: _184  and  _185
REMARK   73  A    between atoms: _184  and  _187
REMARK   74  A    between atoms: _187  and  _188
REMARK   75  A    between atoms: _190  and  _192
REMARK   76  A    between atoms: _192  and  _193
REMARK   77  A    between atoms: _192  and  _195
REMARK   78  A    between atoms: _195  and  _196
REMARK   79  A    between atoms: _196  and  _197
REMARK   80  A    between atoms: _199  and  _201
REMARK   81  A    between atoms: _201  and  _202
REMARK   82  A    between atoms: _201  and  _204
REMARK   83  A    between atoms: _204  and  _205
REMARK   84  A    between atoms: _215  and  _217
REMARK   85  A    between atoms: _217  and  _218
REMARK   86  A    between atoms: _217  and  _220
REMARK   87  A    between atoms: _220  and  _221
REMARK   88  A    between atoms: _231  and  _233
REMARK   89  A    between atoms: _233  and  _234
REMARK   90  A    between atoms: _233  and  _236
REMARK   91  A    between atoms: _236  and  _237
REMARK   92  A    between atoms: _243  and  _245
REMARK   93  A    between atoms: _245  and  _246
REMARK   94  A    between atoms: _245  and  _248
REMARK   95  A    between atoms: _248  and  _249
REMARK   96  A    between atoms: _252  and  _254
REMARK   97  A    between atoms: _254  and  _255
REMARK   98  A    between atoms: _257  and  _259
REMARK   99  A    between atoms: _259  and  _260
REMARK  100  A    between atoms: _259  and  _262
REMARK  101  A    between atoms: _262  and  _263
REMARK  102  A    between atoms: _266  and  _268
REMARK  103  A    between atoms: _268  and  _269
REMARK  104  A    between atoms: _268  and  _271
REMARK  105  A    between atoms: _271  and  _272
REMARK  106  A    between atoms: _282  and  _284
REMARK  107  A    between atoms: _284  and  _285
REMARK  108  A    between atoms: _284  and  _287
REMARK  109  A    between atoms: _287  and  _288
REMARK  110  A    between atoms: _288  and  _289
REMARK  111  A    between atoms: _289  and  _290
REMARK  112  A    between atoms: _299  and  _301
REMARK  113  A    between atoms: _301  and  _302
REMARK  114  A    between atoms: _301  and  _304
REMARK  115  A    between atoms: _304  and  _305
REMARK  116  A    between atoms: _305  and  _306
REMARK  117  A    between atoms: _309  and  _311
REMARK  118  A    between atoms: _311  and  _312
REMARK  119  A    between atoms: _311  and  _314
REMARK  120  A    between atoms: _316  and  _318
REMARK  121  A    between atoms: _318  and  _319
REMARK  122  A    between atoms: _318  and  _321
REMARK  123  A    between atoms: _321  and  _322
REMARK  124  A    between atoms: _322  and  _323
REMARK  125  A    between atoms: _325  and  _327
REMARK  126  A    between atoms: _327  and  _328
REMARK  127  A    between atoms: _327  and  _330
REMARK  128  A    between atoms: _330  and  _331
REMARK  129  A    between atoms: _334  and  _336
REMARK  130  A    between atoms: _336  and  _337
REMARK  131  A    between atoms: _336  and  _339
REMARK  132  A    between atoms: _339  and  _340
REMARK  133  A    between atoms: _345  and  _347
REMARK  134  A    between atoms: _347  and  _348
REMARK  135  A    between atoms: _347  and  _350
REMARK  136  A    between atoms: _350  and  _351
REMARK  137  A    between atoms: _351  and  _352
REMARK  138  A    between atoms: _357  and  _359
REMARK  139  A    between atoms: _359  and  _360
REMARK  140  A    between atoms: _359  and  _362
REMARK  141  A    between atoms: _362  and  _363
REMARK  142  A    between atoms: _373  and  _375
REMARK  143  A    between atoms: _375  and  _376
REMARK  144  A    between atoms: _378  and  _380
REMARK  145  A    between atoms: _380  and  _381
REMARK  146  A    between atoms: _380  and  _383
REMARK  147  A    between atoms: _383  and  _384
REMARK                            x       y       z     vdW  Elec       q    Type
REMARK                         _______ _______ _______ _____ _____    ______ ____
ROOT
ATOM      1  CB  ASN A   1     -10.756   2.823  32.205  0.00  0.00    +0.110 C 
ENDROOT
BRANCH   1   2
ATOM      2  CG  ASN A   1     -10.439   3.776  31.083  0.00  0.00    +0.221 C 
ATOM      3  ND2 ASN A   1      -9.339   4.550  31.210  0.00  0.00    -0.329 N 
ATOM      4 HD21 ASN A   1      -8.784   4.524  32.089  0.00  0.00    +0.145 HD
ATOM      5 HD22 ASN A   1      -9.048   5.172  30.429  0.00  0.00    +0.145 HD
ATOM      6  OD1 ASN A   1     -11.131   3.772  30.059  0.00  0.00    -0.275 OA
ENDBRANCH   1   2
BRANCH   1   7
ATOM      7  CA  ASN A   1     -10.413   1.401  31.832  0.00  0.00    +0.142 C 
BRANCH   7   8
ATOM      8  N   ASN A   1     -10.826   0.470  32.900  0.00  0.00    -0.239 NA
ATOM      9  H   ASN A   1     -10.956   0.832  33.866  0.00  0.00    +0.142 HD
ENDBRANCH   7   8
BRANCH   7  10
ATOM     10  C   ASN A   1      -8.936   1.395  31.464  0.00  0.00    +0.225 C 
ATOM     11  O   ASN A   1      -8.067   1.305  32.346  0.00  0.00    -0.287 OA
ENDBRANCH   7  10
ENDBRANCH   1   7
TORSDOF 4
REMARK  Name = ../refined-set-2016/4j28/4j28_pocket.pdb
REMARK  147 active torsions:
REMARK  status: ('A' for Active; 'I' for Inactive)
REMARK    1  A    between atoms: _1  and  _3
REMARK    2  A    between atoms: _3  and  _4
REMARK    3  A    between atoms: _3  and  _6
REMARK    4  A    between atoms: _6  and  _7
REMARK    5  A    between atoms: _13  and  _15
REMARK    6  A    between atoms: _15  and  _16
REMARK    7  A    between atoms: _15  and  _18
REMARK    8  A    between atoms: _18  and  _19
REMARK    9  A    between atoms: _22  and  _24
REMARK   10  A    between atoms: _24  and  _25
REMARK   11  A    between atoms: _24  and  _27
REMARK   12  A    between atoms: _27  and  _28
REMARK   13  A    between atoms: _33  and  _35
REMARK   14  A    between atoms: _35  and  _36
REMARK   15  A    between atoms: _35  and  _38
REMARK   16  A    between atoms: _38  and  _39
REMARK   17  A    between atoms: _44  and  _45
REMARK   18  A    between atoms: _47  and  _49
REMARK   19  A    between atoms: _49  and  _50
REMARK   20  A    between atoms: _53  and  _55
REMARK   21  A    between atoms: _55  and  _56
REMARK   22  A    between atoms: _59  and  _61
REMARK   23  A    between atoms: _61  and  _62
REMARK   24  A    between atoms: _61  and  _64
REMARK   25  A    between atoms: _64  and  _65
REMARK   26  A    between atoms: _65  and  _66
REMARK   27  A    between atoms: _69  and  _71
REMARK   28  A    between atoms: _71  and  _72
REMARK   29  A    between atoms: _71  and  _74
REMARK   30  A    between atoms: _74  and  _75
REMARK   31  A    between atoms: _85  and  _87
REMARK   32  A    between atoms: _87  and  _88
REMARK   33  A    between atoms: _87  and  _90
REMARK   34  A    between atoms: _90  and  _91
REMARK   35  A    between atoms: _101  and  _103
REMARK   36  A    between atoms: _103  and  _104
REMARK   37  A    between atoms: _103  and  _106
REMARK   38  A    between atoms: _106  and  _107
REMARK   39  A    between atoms: _107  and  _108
REMARK   40  A    between atoms: _108  and  _109
REMARK   41  A    between atoms: _109  and  _110
REMARK   42  A    between atoms: _114  and  _116
REMARK   43  A    between atoms: _116  and  _117
REMARK   44  A    between atoms: _116  and  _119
REMARK   45  A    between atoms: _119  and  _120
REMARK   46  A    between atoms: _123  and  _125
REMARK   47  A    between atoms: _125  and  _126
REMARK   48  A    between atoms: _125  and  _128
REMARK   49  A    between atoms: _128  and  _129
REMARK   50  A    between atoms: _129  and  _130
REMARK   51  A    between atoms: _130  and  _131
REMARK   52  A    between atoms: _131  and  _132
REMARK   53  A    between atoms: _136  and  _138
REMARK   54  A    between atoms: _138  and  _139
REMARK   55  A    between atoms: _138  and  _141
REMARK   56  A    between atoms: _141  and  _142
REMARK   57  A    between atoms: _147  and  _149
REMARK   58  A    between atoms: _149  and  _150
REMARK   59  A    between atoms: _149  and  _152
REMARK   60  A    between atoms: _152  and  _153
REMARK   61  A    between atoms: _158  and  _160
REMARK   62  A    between atoms: _160  and  _161
REMARK   63  A    between atoms: _160  and  _163
REMARK   64  A    between atoms: _163  and  _164
REMARK   65  A    between atoms: _164  and  _165
REMARK   66  A    between atoms: _168  and  _170
REMARK   67  A    between atoms: _170  and  _171
REMARK   68  A    between atoms: _170  and  _173
REMARK   69  A    between atoms: _173  and  _174
REMARK   70  A    between atoms: _179  and  _180
REMARK   71  A    between atoms: _182  and  _184
REMARK   72  A    between atoms: _184  and  _185
REMARK   73  A    between atoms: _184  and  _187
REMARK   74  A    between atoms: _187  and  _188
REMARK   75  A    between atoms: _190  and  _192
REMARK   76  A    between atoms: _192  and  _193
REMARK   77  A    between atoms: _192  and  _195
REMARK   78  A    between atoms: _195  and  _196
REMARK   79  A    between atoms: _196  and  _197
REMARK   80  A    between atoms: _199  and  _201
REMARK   81  A    between atoms: _201  and  _202
REMARK   82  A    between atoms: _201  and  _204
REMARK   83  A    between atoms: _204  and  _205
REMARK   84  A    between atoms: _215  and  _217
REMARK   85  A    between atoms: _217  and  _218
REMARK   86  A    between atoms: _217  and  _220
REMARK   87  A    between atoms: _220  and  _221
REMARK   88  A    between atoms: _231  and  _233
REMARK   89  A    between atoms: _233  and  _234
REMARK   90  A    between atoms: _233  and  _236
REMARK   91  A    between atoms: _236  and  _237
REMARK   92  A    between atoms: _243  and  _245
REMARK   93  A    between atoms: _245  and  _246
REMARK   94  A    between atoms: _245  and  _248
REMARK   95  A    between atoms: _248  and  _249
REMARK   96  A    between atoms: _252  and  _254
REMARK   97  A    between atoms: _254  and  _255
REMARK   98  A    between atoms: _257  and  _259
REMARK   99  A    between atoms: _259  and  _260
REMARK  100  A    between atoms: _259  and  _262
REMARK  101  A    between atoms: _262  and  _263
REMARK  102  A    between atoms: _266  and  _268
REMARK  103  A    between atoms: _268  and  _269
REMARK  104  A    between atoms: _268  and  _271
REMARK  105  A    between atoms: _271  and  _272
REMARK  106  A    between atoms: _282  and  _284
REMARK  107  A    between atoms: _284  and  _285
REMARK  108  A    between atoms: _284  and  _287
REMARK  109  A    between atoms: _287  and  _288
REMARK  110  A    between atoms: _288  and  _289
REMARK  111  A    between atoms: _289  and  _290
REMARK  112  A    between atoms: _299  and  _301
REMARK  113  A    between atoms: _301  and  _302
REMARK  114  A    between atoms: _301  and  _304
REMARK  115  A    between atoms: _304  and  _305
REMARK  116  A    between atoms: _305  and  _306
REMARK  117  A    between atoms: _309  and  _311
REMARK  118  A    between atoms: _311  and  _312
REMARK  119  A    between atoms: _311  and  _314
REMARK  120  A    between atoms: _316  and  _318
REMARK  121  A    between atoms: _318  and  _319
REMARK  122  A    between atoms: _318  and  _321
REMARK  123  A    between atoms: _321  and  _322
REMARK  124  A    between atoms: _322  and  _323
REMARK  125  A    between atoms: _325  and  _327
REMARK  126  A    between atoms: _327  and  _328
REMARK  127  A    between atoms: _327  and  _330
REMARK  128  A    between atoms: _330  and  _331
REMARK  129  A    between atoms: _334  and  _336
REMARK  130  A    between atoms: _336  and  _337
REMARK  131  A    between atoms: _336  and  _339
REMARK  132  A    between atoms: _339  and  _340
REMARK  133  A    between atoms: _345  and  _347
REMARK  134  A    between atoms: _347  and  _348
REMARK  135  A    between atoms: _347  and  _350
REMARK  136  A    between atoms: _350  and  _351
REMARK  137  A    between atoms: _351  and  _352
REMARK  138  A    between atoms: _357  and  _359
REMARK  139  A    between atoms: _359  and  _360
REMARK  140  A    between atoms: _359  and  _362
REMARK  141  A    between atoms: _362  and  _363
REMARK  142  A    between atoms: _373  and  _375
REMARK  143  A    between atoms: _375  and  _376
REMARK  144  A    between atoms: _378  and  _380
REMARK  145  A    between atoms: _380  and  _381
REMARK  146  A    between atoms: _380  and  _383
REMARK  147  A    between atoms: _383  and  _384
REMARK                            x       y       z     vdW  Elec       q    Type
REMARK                         _______ _______ _______ _____ _____    ______ ____
ROOT
ATOM      1  O   HOH     1     -20.463  10.287  33.365  0.00  0.00    +0.000 OA
ENDROOT
TORSDOF 0
REMARK  Name = ../refined-set-2016/4j28/4j28_pocket.pdb
REMARK  147 active torsions:
REMARK  status: ('A' for Active; 'I' for Inactive)
REMARK    1  A    between atoms: _1  and  _3
REMARK    2  A    between atoms: _3  and  _4
REMARK    3  A    between atoms: _3  and  _6
REMARK    4  A    between atoms: _6  and  _7
REMARK    5  A    between atoms: _13  and  _15
REMARK    6  A    between atoms: _15  and  _16
REMARK    7  A    between atoms: _15  and  _18
REMARK    8  A    between atoms: _18  and  _19
REMARK    9  A    between atoms: _22  and  _24
REMARK   10  A    between atoms: _24  and  _25
REMARK   11  A    between atoms: _24  and  _27
REMARK   12  A    between atoms: _27  and  _28
REMARK   13  A    between atoms: _33  and  _35
REMARK   14  A    between atoms: _35  and  _36
REMARK   15  A    between atoms: _35  and  _38
REMARK   16  A    between atoms: _38  and  _39
REMARK   17  A    between atoms: _44  and  _45
REMARK   18  A    between atoms: _47  and  _49
REMARK   19  A    between atoms: _49  and  _50
REMARK   20  A    between atoms: _53  and  _55
REMARK   21  A    between atoms: _55  and  _56
REMARK   22  A    between atoms: _59  and  _61
REMARK   23  A    between atoms: _61  and  _62
REMARK   24  A    between atoms: _61  and  _64
REMARK   25  A    between atoms: _64  and  _65
REMARK   26  A    between atoms: _65  and  _66
REMARK   27  A    between atoms: _69  and  _71
REMARK   28  A    between atoms: _71  and  _72
REMARK   29  A    between atoms: _71  and  _74
REMARK   30  A    between atoms: _74  and  _75
REMARK   31  A    between atoms: _85  and  _87
REMARK   32  A    between atoms: _87  and  _88
REMARK   33  A    between atoms: _87  and  _90
REMARK   34  A    between atoms: _90  and  _91
REMARK   35  A    between atoms: _101  and  _103
REMARK   36  A    between atoms: _103  and  _104
REMARK   37  A    between atoms: _103  and  _106
REMARK   38  A    between atoms: _106  and  _107
REMARK   39  A    between atoms: _107  and  _108
REMARK   40  A    between atoms: _108  and  _109
REMARK   41  A    between atoms: _109  and  _110
REMARK   42  A    between atoms: _114  and  _116
REMARK   43  A    between atoms: _116  and  _117
REMARK   44  A    between atoms: _116  and  _119
REMARK   45  A    between atoms: _119  and  _120
REMARK   46  A    between atoms: _123  and  _125
REMARK   47  A    between atoms: _125  and  _126
REMARK   48  A    between atoms: _125  and  _128
REMARK   49  A    between atoms: _128  and  _129
REMARK   50  A    between atoms: _129  and  _130
REMARK   51  A    between atoms: _130  and  _131
REMARK   52  A    between atoms: _131  and  _132
REMARK   53  A    between atoms: _136  and  _138
REMARK   54  A    between atoms: _138  and  _139
REMARK   55  A    between atoms: _138  and  _141
REMARK   56  A    between atoms: _141  and  _142
REMARK   57  A    between atoms: _147  and  _149
REMARK   58  A    between atoms: _149  and  _150
REMARK   59  A    between atoms: _149  and  _152
REMARK   60  A    between atoms: _152  and  _153
REMARK   61  A    between atoms: _158  and  _160
REMARK   62  A    between atoms: _160  and  _161
REMARK   63  A    between atoms: _160  and  _163
REMARK   64  A    between atoms: _163  and  _164
REMARK   65  A    between atoms: _164  and  _165
REMARK   66  A    between atoms: _168  and  _170
REMARK   67  A    between atoms: _170  and  _171
REMARK   68  A    between atoms: _170  and  _173
REMARK   69  A    between atoms: _173  and  _174
REMARK   70  A    between atoms: _179  and  _180
REMARK   71  A    between atoms: _182  and  _184
REMARK   72  A    between atoms: _184  and  _185
REMARK   73  A    between atoms: _184  and  _187
REMARK   74  A    between atoms: _187  and  _188
REMARK   75  A    between atoms: _190  and  _192
REMARK   76  A    between atoms: _192  and  _193
REMARK   77  A    between atoms: _192  and  _195
REMARK   78  A    between atoms: _195  and  _196
REMARK   79  A    between atoms: _196  and  _197
REMARK   80  A    between atoms: _199  and  _201
REMARK   81  A    between atoms: _201  and  _202
REMARK   82  A    between atoms: _201  and  _204
REMARK   83  A    between atoms: _204  and  _205
REMARK   84  A    between atoms: _215  and  _217
REMARK   85  A    between atoms: _217  and  _218
REMARK   86  A    between atoms: _217  and  _220
REMARK   87  A    between atoms: _220  and  _221
REMARK   88  A    between atoms: _231  and  _233
REMARK   89  A    between atoms: _233  and  _234
REMARK   90  A    between atoms: _233  and  _236
REMARK   91  A    between atoms: _236  and  _237
REMARK   92  A    between atoms: _243  and  _245
REMARK   93  A    between atoms: _245  and  _246
REMARK   94  A    between atoms: _245  and  _248
REMARK   95  A    between atoms: _248  and  _249
REMARK   96  A    between atoms: _252  and  _254
REMARK   97  A    between atoms: _254  and  _255
REMARK   98  A    between atoms: _257  and  _259
REMARK   99  A    between atoms: _259  and  _260
REMARK  100  A    between atoms: _259  and  _262
REMARK  101  A    between atoms: _262  and  _263
REMARK  102  A    between atoms: _266  and  _268
REMARK  103  A    between atoms: _268  and  _269
REMARK  104  A    between atoms: _268  and  _271
REMARK  105  A    between atoms: _271  and  _272
REMARK  106  A    between atoms: _282  and  _284
REMARK  107  A    between atoms: _284  and  _285
REMARK  108  A    between atoms: _284  and  _287
REMARK  109  A    between atoms: _287  and  _288
REMARK  110  A    between atoms: _288  and  _289
REMARK  111  A    between atoms: _289  and  _290
REMARK  112  A    between atoms: _299  and  _301
REMARK  113  A    between atoms: _301  and  _302
REMARK  114  A    between atoms: _301  and  _304
REMARK  115  A    between atoms: _304  and  _305
REMARK  116  A    between atoms: _305  and  _306
REMARK  117  A    between atoms: _309  and  _311
REMARK  118  A    between atoms: _311  and  _312
REMARK  119  A    between atoms: _311  and  _314
REMARK  120  A    between atoms: _316  and  _318
REMARK  121  A    between atoms: _318  and  _319
REMARK  122  A    between atoms: _318  and  _321
REMARK  123  A    between atoms: _321  and  _322
REMARK  124  A    between atoms: _322  and  _323
REMARK  125  A    between atoms: _325  and  _327
REMARK  126  A    between atoms: _327  and  _328
REMARK  127  A    between atoms: _327  and  _330
REMARK  128  A    between atoms: _330  and  _331
REMARK  129  A    between atoms: _334  and  _336
REMARK  130  A    between atoms: _336  and  _337
REMARK  131  A    between atoms: _336  and  _339
REMARK  132  A    between atoms: _339  and  _340
REMARK  133  A    between atoms: _345  and  _347
REMARK  134  A    between atoms: _347  and  _348
REMARK  135  A    between atoms: _347  and  _350
REMARK  136  A    between atoms: _350  and  _351
REMARK  137  A    between atoms: _351  and  _352
REMARK  138  A    between atoms: _357  and  _359
REMARK  139  A    between atoms: _359  and  _360
REMARK  140  A    between atoms: _359  and  _362
REMARK  141  A    between atoms: _362  and  _363
REMARK  142  A    between atoms: _373  and  _375
REMARK  143  A    between atoms: _375  and  _376
REMARK  144  A    between atoms: _378  and  _380
REMARK  145  A    between atoms: _380  and  _381
REMARK  146  A    between atoms: _380  and  _383
REMARK  147  A    between atoms: _383  and  _384
REMARK                            x       y       z     vdW  Elec       q    Type
REMARK                         _______ _______ _______ _____ _____    ______ ____
ROOT
ATOM      1  O   HOH     1     -13.118  14.661  24.987  0.00  0.00    +0.000 OA
ENDROOT
TORSDOF 0
REMARK  Name = ../refined-set-2016/4j28/4j28_pocket.pdb
REMARK  147 active torsions:
REMARK  status: ('A' for Active; 'I' for Inactive)
REMARK    1  A    between atoms: _1  and  _3
REMARK    2  A    between atoms: _3  and  _4
REMARK    3  A    between atoms: _3  and  _6
REMARK    4  A    between atoms: _6  and  _7
REMARK    5  A    between atoms: _13  and  _15
REMARK    6  A    between atoms: _15  and  _16
REMARK    7  A    between atoms: _15  and  _18
REMARK    8  A    between atoms: _18  and  _19
REMARK    9  A    between atoms: _22  and  _24
REMARK   10  A    between atoms: _24  and  _25
REMARK   11  A    between atoms: _24  and  _27
REMARK   12  A    between atoms: _27  and  _28
REMARK   13  A    between atoms: _33  and  _35
REMARK   14  A    between atoms: _35  and  _36
REMARK   15  A    between atoms: _35  and  _38
REMARK   16  A    between atoms: _38  and  _39
REMARK   17  A    between atoms: _44  and  _45
REMARK   18  A    between atoms: _47  and  _49
REMARK   19  A    between atoms: _49  and  _50
REMARK   20  A    between atoms: _53  and  _55
REMARK   21  A    between atoms: _55  and  _56
REMARK   22  A    between atoms: _59  and  _61
REMARK   23  A    between atoms: _61  and  _62
REMARK   24  A    between atoms: _61  and  _64
REMARK   25  A    between atoms: _64  and  _65
REMARK   26  A    between atoms: _65  and  _66
REMARK   27  A    between atoms: _69  and  _71
REMARK   28  A    between atoms: _71  and  _72
REMARK   29  A    between atoms: _71  and  _74
REMARK   30  A    between atoms: _74  and  _75
REMARK   31  A    between atoms: _85  and  _87
REMARK   32  A    between atoms: _87  and  _88
REMARK   33  A    between atoms: _87  and  _90
REMARK   34  A    between atoms: _90  and  _91
REMARK   35  A    between atoms: _101  and  _103
REMARK   36  A    between atoms: _103  and  _104
REMARK   37  A    between atoms: _103  and  _106
REMARK   38  A    between atoms: _106  and  _107
REMARK   39  A    between atoms: _107  and  _108
REMARK   40  A    between atoms: _108  and  _109
REMARK   41  A    between atoms: _109  and  _110
REMARK   42  A    between atoms: _114  and  _116
REMARK   43  A    between atoms: _116  and  _117
REMARK   44  A    between atoms: _116  and  _119
REMARK   45  A    between atoms: _119  and  _120
REMARK   46  A    between atoms: _123  and  _125
REMARK   47  A    between atoms: _125  and  _126
REMARK   48  A    between atoms: _125  and  _128
REMARK   49  A    between atoms: _128  and  _129
REMARK   50  A    between atoms: _129  and  _130
REMARK   51  A    between atoms: _130  and  _131
REMARK   52  A    between atoms: _131  and  _132
REMARK   53  A    between atoms: _136  and  _138
REMARK   54  A    between atoms: _138  and  _139
REMARK   55  A    between atoms: _138  and  _141
REMARK   56  A    between atoms: _141  and  _142
REMARK   57  A    between atoms: _147  and  _149
REMARK   58  A    between atoms: _149  and  _150
REMARK   59  A    between atoms: _149  and  _152
REMARK   60  A    between atoms: _152  and  _153
REMARK   61  A    between atoms: _158  and  _160
REMARK   62  A    between atoms: _160  and  _161
REMARK   63  A    between atoms: _160  and  _163
REMARK   64  A    between atoms: _163  and  _164
REMARK   65  A    between atoms: _164  and  _165
REMARK   66  A    between atoms: _168  and  _170
REMARK   67  A    between atoms: _170  and  _171
REMARK   68  A    between atoms: _170  and  _173
REMARK   69  A    between atoms: _173  and  _174
REMARK   70  A    between atoms: _179  and  _180
REMARK   71  A    between atoms: _182  and  _184
REMARK   72  A    between atoms: _184  and  _185
REMARK   73  A    between atoms: _184  and  _187
REMARK   74  A    between atoms: _187  and  _188
REMARK   75  A    between atoms: _190  and  _192
REMARK   76  A    between atoms: _192  and  _193
REMARK   77  A    between atoms: _192  and  _195
REMARK   78  A    between atoms: _195  and  _196
REMARK   79  A    between atoms: _196  and  _197
REMARK   80  A    between atoms: _199  and  _201
REMARK   81  A    between atoms: _201  and  _202
REMARK   82  A    between atoms: _201  and  _204
REMARK   83  A    between atoms: _204  and  _205
REMARK   84  A    between atoms: _215  and  _217
REMARK   85  A    between atoms: _217  and  _218
REMARK   86  A    between atoms: _217  and  _220
REMARK   87  A    between atoms: _220  and  _221
REMARK   88  A    between atoms: _231  and  _233
REMARK   89  A    between atoms: _233  and  _234
REMARK   90  A    between atoms: _233  and  _236
REMARK   91  A    between atoms: _236  and  _237
REMARK   92  A    between atoms: _243  and  _245
REMARK   93  A    between atoms: _245  and  _246
REMARK   94  A    between atoms: _245  and  _248
REMARK   95  A    between atoms: _248  and  _249
REMARK   96  A    between atoms: _252  and  _254
REMARK   97  A    between atoms: _254  and  _255
REMARK   98  A    between atoms: _257  and  _259
REMARK   99  A    between atoms: _259  and  _260
REMARK  100  A    between atoms: _259  and  _262
REMARK  101  A    between atoms: _262  and  _263
REMARK  102  A    between atoms: _266  and  _268
REMARK  103  A    between atoms: _268  and  _269
REMARK  104  A    between atoms: _268  and  _271
REMARK  105  A    between atoms: _271  and  _272
REMARK  106  A    between atoms: _282  and  _284
REMARK  107  A    between atoms: _284  and  _285
REMARK  108  A    between atoms: _284  and  _287
REMARK  109  A    between atoms: _287  and  _288
REMARK  110  A    between atoms: _288  and  _289
REMARK  111  A    between atoms: _289  and  _290
REMARK  112  A    between atoms: _299  and  _301
REMARK  113  A    between atoms: _301  and  _302
REMARK  114  A    between atoms: _301  and  _304
REMARK  115  A    between atoms: _304  and  _305
REMARK  116  A    between atoms: _305  and  _306
REMARK  117  A    between atoms: _309  and  _311
REMARK  118  A    between atoms: _311  and  _312
REMARK  119  A    between atoms: _311  and  _314
REMARK  120  A    between atoms: _316  and  _318
REMARK  121  A    between atoms: _318  and  _319
REMARK  122  A    between atoms: _318  and  _321
REMARK  123  A    between atoms: _321  and  _322
REMARK  124  A    between atoms: _322  and  _323
REMARK  125  A    between atoms: _325  and  _327
REMARK  126  A    between atoms: _327  and  _328
REMARK  127  A    between atoms: _327  and  _330
REMARK  128  A    between atoms: _330  and  _331
REMARK  129  A    between atoms: _334  and  _336
REMARK  130  A    between atoms: _336  and  _337
REMARK  131  A    between atoms: _336  and  _339
REMARK  132  A    between atoms: _339  and  _340
REMARK  133  A    between atoms: _345  and  _347
REMARK  134  A    between atoms: _347  and  _348
REMARK  135  A    between atoms: _347  and  _350
REMARK  136  A    between atoms: _350  and  _351
REMARK  137  A    between atoms: _351  and  _352
REMARK  138  A    between atoms: _357  and  _359
REMARK  139  A    between atoms: _359  and  _360
REMARK  140  A    between atoms: _359  and  _362
REMARK  141  A    between atoms: _362  and  _363
REMARK  142  A    between atoms: _373  and  _375
REMARK  143  A    between atoms: _375  and  _376
REMARK  144  A    between atoms: _378  and  _380
REMARK  145  A    between atoms: _380  and  _381
REMARK  146  A    between atoms: _380  and  _383
REMARK  147  A    between atoms: _383  and  _384
REMARK                            x       y       z     vdW  Elec       q    Type
REMARK                         _______ _______ _______ _____ _____    ______ ____
ROOT
ATOM      1  O   HOH     1     -11.003  15.998  36.359  0.00  0.00    +0.000 OA
ENDROOT
TORSDOF 0
REMARK  Name = ../refined-set-2016/4j28/4j28_pocket.pdb
REMARK  147 active torsions:
REMARK  status: ('A' for Active; 'I' for Inactive)
REMARK    1  A    between atoms: _1  and  _3
REMARK    2  A    between atoms: _3  and  _4
REMARK    3  A    between atoms: _3  and  _6
REMARK    4  A    between atoms: _6  and  _7
REMARK    5  A    between atoms: _13  and  _15
REMARK    6  A    between atoms: _15  and  _16
REMARK    7  A    between atoms: _15  and  _18
REMARK    8  A    between atoms: _18  and  _19
REMARK    9  A    between atoms: _22  and  _24
REMARK   10  A    between atoms: _24  and  _25
REMARK   11  A    between atoms: _24  and  _27
REMARK   12  A    between atoms: _27  and  _28
REMARK   13  A    between atoms: _33  and  _35
REMARK   14  A    between atoms: _35  and  _36
REMARK   15  A    between atoms: _35  and  _38
REMARK   16  A    between atoms: _38  and  _39
REMARK   17  A    between atoms: _44  and  _45
REMARK   18  A    between atoms: _47  and  _49
REMARK   19  A    between atoms: _49  and  _50
REMARK   20  A    between atoms: _53  and  _55
REMARK   21  A    between atoms: _55  and  _56
REMARK   22  A    between atoms: _59  and  _61
REMARK   23  A    between atoms: _61  and  _62
REMARK   24  A    between atoms: _61  and  _64
REMARK   25  A    between atoms: _64  and  _65
REMARK   26  A    between atoms: _65  and  _66
REMARK   27  A    between atoms: _69  and  _71
REMARK   28  A    between atoms: _71  and  _72
REMARK   29  A    between atoms: _71  and  _74
REMARK   30  A    between atoms: _74  and  _75
REMARK   31  A    between atoms: _85  and  _87
REMARK   32  A    between atoms: _87  and  _88
REMARK   33  A    between atoms: _87  and  _90
REMARK   34  A    between atoms: _90  and  _91
REMARK   35  A    between atoms: _101  and  _103
REMARK   36  A    between atoms: _103  and  _104
REMARK   37  A    between atoms: _103  and  _106
REMARK   38  A    between atoms: _106  and  _107
REMARK   39  A    between atoms: _107  and  _108
REMARK   40  A    between atoms: _108  and  _109
REMARK   41  A    between atoms: _109  and  _110
REMARK   42  A    between atoms: _114  and  _116
REMARK   43  A    between atoms: _116  and  _117
REMARK   44  A    between atoms: _116  and  _119
REMARK   45  A    between atoms: _119  and  _120
REMARK   46  A    between atoms: _123  and  _125
REMARK   47  A    between atoms: _125  and  _126
REMARK   48  A    between atoms: _125  and  _128
REMARK   49  A    between atoms: _128  and  _129
REMARK   50  A    between atoms: _129  and  _130
REMARK   51  A    between atoms: _130  and  _131
REMARK   52  A    between atoms: _131  and  _132
REMARK   53  A    between atoms: _136  and  _138
REMARK   54  A    between atoms: _138  and  _139
REMARK   55  A    between atoms: _138  and  _141
REMARK   56  A    between atoms: _141  and  _142
REMARK   57  A    between atoms: _147  and  _149
REMARK   58  A    between atoms: _149  and  _150
REMARK   59  A    between atoms: _149  and  _152
REMARK   60  A    between atoms: _152  and  _153
REMARK   61  A    between atoms: _158  and  _160
REMARK   62  A    between atoms: _160  and  _161
REMARK   63  A    between atoms: _160  and  _163
REMARK   64  A    between atoms: _163  and  _164
REMARK   65  A    between atoms: _164  and  _165
REMARK   66  A    between atoms: _168  and  _170
REMARK   67  A    between atoms: _170  and  _171
REMARK   68  A    between atoms: _170  and  _173
REMARK   69  A    between atoms: _173  and  _174
REMARK   70  A    between atoms: _179  and  _180
REMARK   71  A    between atoms: _182  and  _184
REMARK   72  A    between atoms: _184  and  _185
REMARK   73  A    between atoms: _184  and  _187
REMARK   74  A    between atoms: _187  and  _188
REMARK   75  A    between atoms: _190  and  _192
REMARK   76  A    between atoms: _192  and  _193
REMARK   77  A    between atoms: _192  and  _195
REMARK   78  A    between atoms: _195  and  _196
REMARK   79  A    between atoms: _196  and  _197
REMARK   80  A    between atoms: _199  and  _201
REMARK   81  A    between atoms: _201  and  _202
REMARK   82  A    between atoms: _201  and  _204
REMARK   83  A    between atoms: _204  and  _205
REMARK   84  A    between atoms: _215  and  _217
REMARK   85  A    between atoms: _217  and  _218
REMARK   86  A    between atoms: _217  and  _220
REMARK   87  A    between atoms: _220  and  _221
REMARK   88  A    between atoms: _231  and  _233
REMARK   89  A    between atoms: _233  and  _234
REMARK   90  A    between atoms: _233  and  _236
REMARK   91  A    between atoms: _236  and  _237
REMARK   92  A    between atoms: _243  and  _245
REMARK   93  A    between atoms: _245  and  _246
REMARK   94  A    between atoms: _245  and  _248
REMARK   95  A    between atoms: _248  and  _249
REMARK   96  A    between atoms: _252  and  _254
REMARK   97  A    between atoms: _254  and  _255
REMARK   98  A    between atoms: _257  and  _259
REMARK   99  A    between atoms: _259  and  _260
REMARK  100  A    between atoms: _259  and  _262
REMARK  101  A    between atoms: _262  and  _263
REMARK  102  A    between atoms: _266  and  _268
REMARK  103  A    between atoms: _268  and  _269
REMARK  104  A    between atoms: _268  and  _271
REMARK  105  A    between atoms: _271  and  _272
REMARK  106  A    between atoms: _282  and  _284
REMARK  107  A    between atoms: _284  and  _285
REMARK  108  A    between atoms: _284  and  _287
REMARK  109  A    between atoms: _287  and  _288
REMARK  110  A    between atoms: _288  and  _289
REMARK  111  A    between atoms: _289  and  _290
REMARK  112  A    between atoms: _299  and  _301
REMARK  113  A    between atoms: _301  and  _302
REMARK  114  A    between atoms: _301  and  _304
REMARK  115  A    between atoms: _304  and  _305
REMARK  116  A    between atoms: _305  and  _306
REMARK  117  A    between atoms: _309  and  _311
REMARK  118  A    between atoms: _311  and  _312
REMARK  119  A    between atoms: _311  and  _314
REMARK  120  A    between atoms: _316  and  _318
REMARK  121  A    between atoms: _318  and  _319
REMARK  122  A    between atoms: _318  and  _321
REMARK  123  A    between atoms: _321  and  _322
REMARK  124  A    between atoms: _322  and  _323
REMARK  125  A    between atoms: _325  and  _327
REMARK  126  A    between atoms: _327  and  _328
REMARK  127  A    between atoms: _327  and  _330
REMARK  128  A    between atoms: _330  and  _331
REMARK  129  A    between atoms: _334  and  _336
REMARK  130  A    between atoms: _336  and  _337
REMARK  131  A    between atoms: _336  and  _339
REMARK  132  A    between atoms: _339  and  _340
REMARK  133  A    between atoms: _345  and  _347
REMARK  134  A    between atoms: _347  and  _348
REMARK  135  A    between atoms: _347  and  _350
REMARK  136  A    between atoms: _350  and  _351
REMARK  137  A    between atoms: _351  and  _352
REMARK  138  A    between atoms: _357  and  _359
REMARK  139  A    between atoms: _359  and  _360
REMARK  140  A    between atoms: _359  and  _362
REMARK  141  A    between atoms: _362  and  _363
REMARK  142  A    between atoms: _373  and  _375
REMARK  143  A    between atoms: _375  and  _376
REMARK  144  A    between atoms: _378  and  _380
REMARK  145  A    between atoms: _380  and  _381
REMARK  146  A    between atoms: _380  and  _383
REMARK  147  A    between atoms: _383  and  _384
REMARK                            x       y       z     vdW  Elec       q    Type
REMARK                         _______ _______ _______ _____ _____    ______ ____
ROOT
ATOM      1  O   HOH     1     -20.248   3.172  35.408  0.00  0.00    +0.000 OA
ENDROOT
TORSDOF 0
REMARK  Name = ../refined-set-2016/4j28/4j28_pocket.pdb
REMARK  147 active torsions:
REMARK  status: ('A' for Active; 'I' for Inactive)
REMARK    1  A    between atoms: _1  and  _3
REMARK    2  A    between atoms: _3  and  _4
REMARK    3  A    between atoms: _3  and  _6
REMARK    4  A    between atoms: _6  and  _7
REMARK    5  A    between atoms: _13  and  _15
REMARK    6  A    between atoms: _15  and  _16
REMARK    7  A    between atoms: _15  and  _18
REMARK    8  A    between atoms: _18  and  _19
REMARK    9  A    between atoms: _22  and  _24
REMARK   10  A    between atoms: _24  and  _25
REMARK   11  A    between atoms: _24  and  _27
REMARK   12  A    between atoms: _27  and  _28
REMARK   13  A    between atoms: _33  and  _35
REMARK   14  A    between atoms: _35  and  _36
REMARK   15  A    between atoms: _35  and  _38
REMARK   16  A    between atoms: _38  and  _39
REMARK   17  A    between atoms: _44  and  _45
REMARK   18  A    between atoms: _47  and  _49
REMARK   19  A    between atoms: _49  and  _50
REMARK   20  A    between atoms: _53  and  _55
REMARK   21  A    between atoms: _55  and  _56
REMARK   22  A    between atoms: _59  and  _61
REMARK   23  A    between atoms: _61  and  _62
REMARK   24  A    between atoms: _61  and  _64
REMARK   25  A    between atoms: _64  and  _65
REMARK   26  A    between atoms: _65  and  _66
REMARK   27  A    between atoms: _69  and  _71
REMARK   28  A    between atoms: _71  and  _72
REMARK   29  A    between atoms: _71  and  _74
REMARK   30  A    between atoms: _74  and  _75
REMARK   31  A    between atoms: _85  and  _87
REMARK   32  A    between atoms: _87  and  _88
REMARK   33  A    between atoms: _87  and  _90
REMARK   34  A    between atoms: _90  and  _91
REMARK   35  A    between atoms: _101  and  _103
REMARK   36  A    between atoms: _103  and  _104
REMARK   37  A    between atoms: _103  and  _106
REMARK   38  A    between atoms: _106  and  _107
REMARK   39  A    between atoms: _107  and  _108
REMARK   40  A    between atoms: _108  and  _109
REMARK   41  A    between atoms: _109  and  _110
REMARK   42  A    between atoms: _114  and  _116
REMARK   43  A    between atoms: _116  and  _117
REMARK   44  A    between atoms: _116  and  _119
REMARK   45  A    between atoms: _119  and  _120
REMARK   46  A    between atoms: _123  and  _125
REMARK   47  A    between atoms: _125  and  _126
REMARK   48  A    between atoms: _125  and  _128
REMARK   49  A    between atoms: _128  and  _129
REMARK   50  A    between atoms: _129  and  _130
REMARK   51  A    between atoms: _130  and  _131
REMARK   52  A    between atoms: _131  and  _132
REMARK   53  A    between atoms: _136  and  _138
REMARK   54  A    between atoms: _138  and  _139
REMARK   55  A    between atoms: _138  and  _141
REMARK   56  A    between atoms: _141  and  _142
REMARK   57  A    between atoms: _147  and  _149
REMARK   58  A    between atoms: _149  and  _150
REMARK   59  A    between atoms: _149  and  _152
REMARK   60  A    between atoms: _152  and  _153
REMARK   61  A    between atoms: _158  and  _160
REMARK   62  A    between atoms: _160  and  _161
REMARK   63  A    between atoms: _160  and  _163
REMARK   64  A    between atoms: _163  and  _164
REMARK   65  A    between atoms: _164  and  _165
REMARK   66  A    between atoms: _168  and  _170
REMARK   67  A    between atoms: _170  and  _171
REMARK   68  A    between atoms: _170  and  _173
REMARK   69  A    between atoms: _173  and  _174
REMARK   70  A    between atoms: _179  and  _180
REMARK   71  A    between atoms: _182  and  _184
REMARK   72  A    between atoms: _184  and  _185
REMARK   73  A    between atoms: _184  and  _187
REMARK   74  A    between atoms: _187  and  _188
REMARK   75  A    between atoms: _190  and  _192
REMARK   76  A    between atoms: _192  and  _193
REMARK   77  A    between atoms: _192  and  _195
REMARK   78  A    between atoms: _195  and  _196
REMARK   79  A    between atoms: _196  and  _197
REMARK   80  A    between atoms: _199  and  _201
REMARK   81  A    between atoms: _201  and  _202
REMARK   82  A    between atoms: _201  and  _204
REMARK   83  A    between atoms: _204  and  _205
REMARK   84  A    between atoms: _215  and  _217
REMARK   85  A    between atoms: _217  and  _218
REMARK   86  A    between atoms: _217  and  _220
REMARK   87  A    between atoms: _220  and  _221
REMARK   88  A    between atoms: _231  and  _233
REMARK   89  A    between atoms: _233  and  _234
REMARK   90  A    between atoms: _233  and  _236
REMARK   91  A    between atoms: _236  and  _237
REMARK   92  A    between atoms: _243  and  _245
REMARK   93  A    between atoms: _245  and  _246
REMARK   94  A    between atoms: _245  and  _248
REMARK   95  A    between atoms: _248  and  _249
REMARK   96  A    between atoms: _252  and  _254
REMARK   97  A    between atoms: _254  and  _255
REMARK   98  A    between atoms: _257  and  _259
REMARK   99  A    between atoms: _259  and  _260
REMARK  100  A    between atoms: _259  and  _262
REMARK  101  A    between atoms: _262  and  _263
REMARK  102  A    between atoms: _266  and  _268
REMARK  103  A    between atoms: _268  and  _269
REMARK  104  A    between atoms: _268  and  _271
REMARK  105  A    between atoms: _271  and  _272
REMARK  106  A    between atoms: _282  and  _284
REMARK  107  A    between atoms: _284  and  _285
REMARK  108  A    between atoms: _284  and  _287
REMARK  109  A    between atoms: _287  and  _288
REMARK  110  A    between atoms: _288  and  _289
REMARK  111  A    between atoms: _289  and  _290
REMARK  112  A    between atoms: _299  and  _301
REMARK  113  A    between atoms: _301  and  _302
REMARK  114  A    between atoms: _301  and  _304
REMARK  115  A    between atoms: _304  and  _305
REMARK  116  A    between atoms: _305  and  _306
REMARK  117  A    between atoms: _309  and  _311
REMARK  118  A    between atoms: _311  and  _312
REMARK  119  A    between atoms: _311  and  _314
REMARK  120  A    between atoms: _316  and  _318
REMARK  121  A    between atoms: _318  and  _319
REMARK  122  A    between atoms: _318  and  _321
REMARK  123  A    between atoms: _321  and  _322
REMARK  124  A    between atoms: _322  and  _323
REMARK  125  A    between atoms: _325  and  _327
REMARK  126  A    between atoms: _327  and  _328
REMARK  127  A    between atoms: _327  and  _330
REMARK  128  A    between atoms: _330  and  _331
REMARK  129  A    between atoms: _334  and  _336
REMARK  130  A    between atoms: _336  and  _337
REMARK  131  A    between atoms: _336  and  _339
REMARK  132  A    between atoms: _339  and  _340
REMARK  133  A    between atoms: _345  and  _347
REMARK  134  A    between atoms: _347  and  _348
REMARK  135  A    between atoms: _347  and  _350
REMARK  136  A    between atoms: _350  and  _351
REMARK  137  A    between atoms: _351  and  _352
REMARK  138  A    between atoms: _357  and  _359
REMARK  139  A    between atoms: _359  and  _360
REMARK  140  A    between atoms: _359  and  _362
REMARK  141  A    between atoms: _362  and  _363
REMARK  142  A    between atoms: _373  and  _375
REMARK  143  A    between atoms: _375  and  _376
REMARK  144  A    between atoms: _378  and  _380
REMARK  145  A    between atoms: _380  and  _381
REMARK  146  A    between atoms: _380  and  _383
REMARK  147  A    between atoms: _383  and  _384
REMARK                            x       y       z     vdW  Elec       q    Type
REMARK                         _______ _______ _______ _____ _____    ______ ____
ROOT
ATOM      1  O   HOH     1     -15.749  10.458  35.696  0.00  0.00    +0.000 OA
ENDROOT
TORSDOF 0
REMARK  Name = ../refined-set-2016/4j28/4j28_pocket.pdb
REMARK  147 active torsions:
REMARK  status: ('A' for Active; 'I' for Inactive)
REMARK    1  A    between atoms: _1  and  _3
REMARK    2  A    between atoms: _3  and  _4
REMARK    3  A    between atoms: _3  and  _6
REMARK    4  A    between atoms: _6  and  _7
REMARK    5  A    between atoms: _13  and  _15
REMARK    6  A    between atoms: _15  and  _16
REMARK    7  A    between atoms: _15  and  _18
REMARK    8  A    between atoms: _18  and  _19
REMARK    9  A    between atoms: _22  and  _24
REMARK   10  A    between atoms: _24  and  _25
REMARK   11  A    between atoms: _24  and  _27
REMARK   12  A    between atoms: _27  and  _28
REMARK   13  A    between atoms: _33  and  _35
REMARK   14  A    between atoms: _35  and  _36
REMARK   15  A    between atoms: _35  and  _38
REMARK   16  A    between atoms: _38  and  _39
REMARK   17  A    between atoms: _44  and  _45
REMARK   18  A    between atoms: _47  and  _49
REMARK   19  A    between atoms: _49  and  _50
REMARK   20  A    between atoms: _53  and  _55
REMARK   21  A    between atoms: _55  and  _56
REMARK   22  A    between atoms: _59  and  _61
REMARK   23  A    between atoms: _61  and  _62
REMARK   24  A    between atoms: _61  and  _64
REMARK   25  A    between atoms: _64  and  _65
REMARK   26  A    between atoms: _65  and  _66
REMARK   27  A    between atoms: _69  and  _71
REMARK   28  A    between atoms: _71  and  _72
REMARK   29  A    between atoms: _71  and  _74
REMARK   30  A    between atoms: _74  and  _75
REMARK   31  A    between atoms: _85  and  _87
REMARK   32  A    between atoms: _87  and  _88
REMARK   33  A    between atoms: _87  and  _90
REMARK   34  A    between atoms: _90  and  _91
REMARK   35  A    between atoms: _101  and  _103
REMARK   36  A    between atoms: _103  and  _104
REMARK   37  A    between atoms: _103  and  _106
REMARK   38  A    between atoms: _106  and  _107
REMARK   39  A    between atoms: _107  and  _108
REMARK   40  A    between atoms: _108  and  _109
REMARK   41  A    between atoms: _109  and  _110
REMARK   42  A    between atoms: _114  and  _116
REMARK   43  A    between atoms: _116  and  _117
REMARK   44  A    between atoms: _116  and  _119
REMARK   45  A    between atoms: _119  and  _120
REMARK   46  A    between atoms: _123  and  _125
REMARK   47  A    between atoms: _125  and  _126
REMARK   48  A    between atoms: _125  and  _128
REMARK   49  A    between atoms: _128  and  _129
REMARK   50  A    between atoms: _129  and  _130
REMARK   51  A    between atoms: _130  and  _131
REMARK   52  A    between atoms: _131  and  _132
REMARK   53  A    between atoms: _136  and  _138
REMARK   54  A    between atoms: _138  and  _139
REMARK   55  A    between atoms: _138  and  _141
REMARK   56  A    between atoms: _141  and  _142
REMARK   57  A    between atoms: _147  and  _149
REMARK   58  A    between atoms: _149  and  _150
REMARK   59  A    between atoms: _149  and  _152
REMARK   60  A    between atoms: _152  and  _153
REMARK   61  A    between atoms: _158  and  _160
REMARK   62  A    between atoms: _160  and  _161
REMARK   63  A    between atoms: _160  and  _163
REMARK   64  A    between atoms: _163  and  _164
REMARK   65  A    between atoms: _164  and  _165
REMARK   66  A    between atoms: _168  and  _170
REMARK   67  A    between atoms: _170  and  _171
REMARK   68  A    between atoms: _170  and  _173
REMARK   69  A    between atoms: _173  and  _174
REMARK   70  A    between atoms: _179  and  _180
REMARK   71  A    between atoms: _182  and  _184
REMARK   72  A    between atoms: _184  and  _185
REMARK   73  A    between atoms: _184  and  _187
REMARK   74  A    between atoms: _187  and  _188
REMARK   75  A    between atoms: _190  and  _192
REMARK   76  A    between atoms: _192  and  _193
REMARK   77  A    between atoms: _192  and  _195
REMARK   78  A    between atoms: _195  and  _196
REMARK   79  A    between atoms: _196  and  _197
REMARK   80  A    between atoms: _199  and  _201
REMARK   81  A    between atoms: _201  and  _202
REMARK   82  A    between atoms: _201  and  _204
REMARK   83  A    between atoms: _204  and  _205
REMARK   84  A    between atoms: _215  and  _217
REMARK   85  A    between atoms: _217  and  _218
REMARK   86  A    between atoms: _217  and  _220
REMARK   87  A    between atoms: _220  and  _221
REMARK   88  A    between atoms: _231  and  _233
REMARK   89  A    between atoms: _233  and  _234
REMARK   90  A    between atoms: _233  and  _236
REMARK   91  A    between atoms: _236  and  _237
REMARK   92  A    between atoms: _243  and  _245
REMARK   93  A    between atoms: _245  and  _246
REMARK   94  A    between atoms: _245  and  _248
REMARK   95  A    between atoms: _248  and  _249
REMARK   96  A    between atoms: _252  and  _254
REMARK   97  A    between atoms: _254  and  _255
REMARK   98  A    between atoms: _257  and  _259
REMARK   99  A    between atoms: _259  and  _260
REMARK  100  A    between atoms: _259  and  _262
REMARK  101  A    between atoms: _262  and  _263
REMARK  102  A    between atoms: _266  and  _268
REMARK  103  A    between atoms: _268  and  _269
REMARK  104  A    between atoms: _268  and  _271
REMARK  105  A    between atoms: _271  and  _272
REMARK  106  A    between atoms: _282  and  _284
REMARK  107  A    between atoms: _284  and  _285
REMARK  108  A    between atoms: _284  and  _287
REMARK  109  A    between atoms: _287  and  _288
REMARK  110  A    between atoms: _288  and  _289
REMARK  111  A    between atoms: _289  and  _290
REMARK  112  A    between atoms: _299  and  _301
REMARK  113  A    between atoms: _301  and  _302
REMARK  114  A    between atoms: _301  and  _304
REMARK  115  A    between atoms: _304  and  _305
REMARK  116  A    between atoms: _305  and  _306
REMARK  117  A    between atoms: _309  and  _311
REMARK  118  A    between atoms: _311  and  _312
REMARK  119  A    between atoms: _311  and  _314
REMARK  120  A    between atoms: _316  and  _318
REMARK  121  A    between atoms: _318  and  _319
REMARK  122  A    between atoms: _318  and  _321
REMARK  123  A    between atoms: _321  and  _322
REMARK  124  A    between atoms: _322  and  _323
REMARK  125  A    between atoms: _325  and  _327
REMARK  126  A    between atoms: _327  and  _328
REMARK  127  A    between atoms: _327  and  _330
REMARK  128  A    between atoms: _330  and  _331
REMARK  129  A    between atoms: _334  and  _336
REMARK  130  A    between atoms: _336  and  _337
REMARK  131  A    between atoms: _336  and  _339
REMARK  132  A    between atoms: _339  and  _340
REMARK  133  A    between atoms: _345  and  _347
REMARK  134  A    between atoms: _347  and  _348
REMARK  135  A    between atoms: _347  and  _350
REMARK  136  A    between atoms: _350  and  _351
REMARK  137  A    between atoms: _351  and  _352
REMARK  138  A    between atoms: _357  and  _359
REMARK  139  A    between atoms: _359  and  _360
REMARK  140  A    between atoms: _359  and  _362
REMARK  141  A    between atoms: _362  and  _363
REMARK  142  A    between atoms: _373  and  _375
REMARK  143  A    between atoms: _375  and  _376
REMARK  144  A    between atoms: _378  and  _380
REMARK  145  A    between atoms: _380  and  _381
REMARK  146  A    between atoms: _380  and  _383
REMARK  147  A    between atoms: _383  and  _384
REMARK                            x       y       z     vdW  Elec       q    Type
REMARK                         _______ _______ _______ _____ _____    ______ ____
ROOT
ATOM      1  O   HOH     1     -20.679   5.373  35.222  0.00  0.00    +0.000 OA
ENDROOT
TORSDOF 0
REMARK  Name = ../refined-set-2016/4j28/4j28_pocket.pdb
REMARK  147 active torsions:
REMARK  status: ('A' for Active; 'I' for Inactive)
REMARK    1  A    between atoms: _1  and  _3
REMARK    2  A    between atoms: _3  and  _4
REMARK    3  A    between atoms: _3  and  _6
REMARK    4  A    between atoms: _6  and  _7
REMARK    5  A    between atoms: _13  and  _15
REMARK    6  A    between atoms: _15  and  _16
REMARK    7  A    between atoms: _15  and  _18
REMARK    8  A    between atoms: _18  and  _19
REMARK    9  A    between atoms: _22  and  _24
REMARK   10  A    between atoms: _24  and  _25
REMARK   11  A    between atoms: _24  and  _27
REMARK   12  A    between atoms: _27  and  _28
REMARK   13  A    between atoms: _33  and  _35
REMARK   14  A    between atoms: _35  and  _36
REMARK   15  A    between atoms: _35  and  _38
REMARK   16  A    between atoms: _38  and  _39
REMARK   17  A    between atoms: _44  and  _45
REMARK   18  A    between atoms: _47  and  _49
REMARK   19  A    between atoms: _49  and  _50
REMARK   20  A    between atoms: _53  and  _55
REMARK   21  A    between atoms: _55  and  _56
REMARK   22  A    between atoms: _59  and  _61
REMARK   23  A    between atoms: _61  and  _62
REMARK   24  A    between atoms: _61  and  _64
REMARK   25  A    between atoms: _64  and  _65
REMARK   26  A    between atoms: _65  and  _66
REMARK   27  A    between atoms: _69  and  _71
REMARK   28  A    between atoms: _71  and  _72
REMARK   29  A    between atoms: _71  and  _74
REMARK   30  A    between atoms: _74  and  _75
REMARK   31  A    between atoms: _85  and  _87
REMARK   32  A    between atoms: _87  and  _88
REMARK   33  A    between atoms: _87  and  _90
REMARK   34  A    between atoms: _90  and  _91
REMARK   35  A    between atoms: _101  and  _103
REMARK   36  A    between atoms: _103  and  _104
REMARK   37  A    between atoms: _103  and  _106
REMARK   38  A    between atoms: _106  and  _107
REMARK   39  A    between atoms: _107  and  _108
REMARK   40  A    between atoms: _108  and  _109
REMARK   41  A    between atoms: _109  and  _110
REMARK   42  A    between atoms: _114  and  _116
REMARK   43  A    between atoms: _116  and  _117
REMARK   44  A    between atoms: _116  and  _119
REMARK   45  A    between atoms: _119  and  _120
REMARK   46  A    between atoms: _123  and  _125
REMARK   47  A    between atoms: _125  and  _126
REMARK   48  A    between atoms: _125  and  _128
REMARK   49  A    between atoms: _128  and  _129
REMARK   50  A    between atoms: _129  and  _130
REMARK   51  A    between atoms: _130  and  _131
REMARK   52  A    between atoms: _131  and  _132
REMARK   53  A    between atoms: _136  and  _138
REMARK   54  A    between atoms: _138  and  _139
REMARK   55  A    between atoms: _138  and  _141
REMARK   56  A    between atoms: _141  and  _142
REMARK   57  A    between atoms: _147  and  _149
REMARK   58  A    between atoms: _149  and  _150
REMARK   59  A    between atoms: _149  and  _152
REMARK   60  A    between atoms: _152  and  _153
REMARK   61  A    between atoms: _158  and  _160
REMARK   62  A    between atoms: _160  and  _161
REMARK   63  A    between atoms: _160  and  _163
REMARK   64  A    between atoms: _163  and  _164
REMARK   65  A    between atoms: _164  and  _165
REMARK   66  A    between atoms: _168  and  _170
REMARK   67  A    between atoms: _170  and  _171
REMARK   68  A    between atoms: _170  and  _173
REMARK   69  A    between atoms: _173  and  _174
REMARK   70  A    between atoms: _179  and  _180
REMARK   71  A    between atoms: _182  and  _184
REMARK   72  A    between atoms: _184  and  _185
REMARK   73  A    between atoms: _184  and  _187
REMARK   74  A    between atoms: _187  and  _188
REMARK   75  A    between atoms: _190  and  _192
REMARK   76  A    between atoms: _192  and  _193
REMARK   77  A    between atoms: _192  and  _195
REMARK   78  A    between atoms: _195  and  _196
REMARK   79  A    between atoms: _196  and  _197
REMARK   80  A    between atoms: _199  and  _201
REMARK   81  A    between atoms: _201  and  _202
REMARK   82  A    between atoms: _201  and  _204
REMARK   83  A    between atoms: _204  and  _205
REMARK   84  A    between atoms: _215  and  _217
REMARK   85  A    between atoms: _217  and  _218
REMARK   86  A    between atoms: _217  and  _220
REMARK   87  A    between atoms: _220  and  _221
REMARK   88  A    between atoms: _231  and  _233
REMARK   89  A    between atoms: _233  and  _234
REMARK   90  A    between atoms: _233  and  _236
REMARK   91  A    between atoms: _236  and  _237
REMARK   92  A    between atoms: _243  and  _245
REMARK   93  A    between atoms: _245  and  _246
REMARK   94  A    between atoms: _245  and  _248
REMARK   95  A    between atoms: _248  and  _249
REMARK   96  A    between atoms: _252  and  _254
REMARK   97  A    between atoms: _254  and  _255
REMARK   98  A    between atoms: _257  and  _259
REMARK   99  A    between atoms: _259  and  _260
REMARK  100  A    between atoms: _259  and  _262
REMARK  101  A    between atoms: _262  and  _263
REMARK  102  A    between atoms: _266  and  _268
REMARK  103  A    between atoms: _268  and  _269
REMARK  104  A    between atoms: _268  and  _271
REMARK  105  A    between atoms: _271  and  _272
REMARK  106  A    between atoms: _282  and  _284
REMARK  107  A    between atoms: _284  and  _285
REMARK  108  A    between atoms: _284  and  _287
REMARK  109  A    between atoms: _287  and  _288
REMARK  110  A    between atoms: _288  and  _289
REMARK  111  A    between atoms: _289  and  _290
REMARK  112  A    between atoms: _299  and  _301
REMARK  113  A    between atoms: _301  and  _302
REMARK  114  A    between atoms: _301  and  _304
REMARK  115  A    between atoms: _304  and  _305
REMARK  116  A    between atoms: _305  and  _306
REMARK  117  A    between atoms: _309  and  _311
REMARK  118  A    between atoms: _311  and  _312
REMARK  119  A    between atoms: _311  and  _314
REMARK  120  A    between atoms: _316  and  _318
REMARK  121  A    between atoms: _318  and  _319
REMARK  122  A    between atoms: _318  and  _321
REMARK  123  A    between atoms: _321  and  _322
REMARK  124  A    between atoms: _322  and  _323
REMARK  125  A    between atoms: _325  and  _327
REMARK  126  A    between atoms: _327  and  _328
REMARK  127  A    between atoms: _327  and  _330
REMARK  128  A    between atoms: _330  and  _331
REMARK  129  A    between atoms: _334  and  _336
REMARK  130  A    between atoms: _336  and  _337
REMARK  131  A    between atoms: _336  and  _339
REMARK  132  A    between atoms: _339  and  _340
REMARK  133  A    between atoms: _345  and  _347
REMARK  134  A    between atoms: _347  and  _348
REMARK  135  A    between atoms: _347  and  _350
REMARK  136  A    between atoms: _350  and  _351
REMARK  137  A    between atoms: _351  and  _352
REMARK  138  A    between atoms: _357  and  _359
REMARK  139  A    between atoms: _359  and  _360
REMARK  140  A    between atoms: _359  and  _362
REMARK  141  A    between atoms: _362  and  _363
REMARK  142  A    between atoms: _373  and  _375
REMARK  143  A    between atoms: _375  and  _376
REMARK  144  A    between atoms: _378  and  _380
REMARK  145  A    between atoms: _380  and  _381
REMARK  146  A    between atoms: _380  and  _383
REMARK  147  A    between atoms: _383  and  _384
REMARK                            x       y       z     vdW  Elec       q    Type
REMARK                         _______ _______ _______ _____ _____    ______ ____
ROOT
ATOM      1  O   HOH     1     -13.323  12.874  33.776  0.00  0.00    +0.000 OA
ENDROOT
TORSDOF 0
