REMARK  Name = ../refined-set-2016/6rnt/6rnt_pocket.pdb
REMARK  108 active torsions:
REMARK  status: ('A' for Active; 'I' for Inactive)
REMARK    1  A    between atoms: _1  and  _3
REMARK    2  A    between atoms: _3  and  _4
REMARK    3  A    between atoms: _3  and  _6
REMARK    4  A    between atoms: _6  and  _7
REMARK    5  A    between atoms: _9  and  _11
REMARK    6  A    between atoms: _11  and  _12
REMARK    7  A    between atoms: _11  and  _14
REMARK    8  A    between atoms: _14  and  _15
REMARK    9  A    between atoms: _20  and  _22
REMARK   10  A    between atoms: _22  and  _23
REMARK   11  A    between atoms: _22  and  _25
REMARK   12  A    between atoms: _25  and  _26
REMARK   13  A    between atoms: _28  and  _30
REMARK   14  A    between atoms: _30  and  _31
REMARK   15  A    between atoms: _30  and  _33
REMARK   16  A    between atoms: _33  and  _34
REMARK   17  A    between atoms: _39  and  _40
REMARK   18  A    between atoms: _42  and  _44
REMARK   19  A    between atoms: _44  and  _45
REMARK   20  A    between atoms: _44  and  _47
REMARK   21  A    between atoms: _47  and  _48
REMARK   22  A    between atoms: _53  and  _55
REMARK   23  A    between atoms: _55  and  _56
REMARK   24  A    between atoms: _55  and  _58
REMARK   25  A    between atoms: _58  and  _59
REMARK   26  A    between atoms: _59  and  _60
REMARK   27  A    between atoms: _60  and  _61
REMARK   28  A    between atoms: _61  and  _62
REMARK   29  A    between atoms: _66  and  _68
REMARK   30  A    between atoms: _68  and  _69
REMARK   31  A    between atoms: _68  and  _71
REMARK   32  A    between atoms: _71  and  _72
REMARK   33  A    between atoms: _77  and  _78
REMARK   34  A    between atoms: _80  and  _82
REMARK   35  A    between atoms: _82  and  _83
REMARK   36  A    between atoms: _82  and  _85
REMARK   37  A    between atoms: _85  and  _86
REMARK   38  A    between atoms: _91  and  _93
REMARK   39  A    between atoms: _93  and  _94
REMARK   40  A    between atoms: _93  and  _96
REMARK   41  A    between atoms: _96  and  _97
REMARK   42  A    between atoms: _102  and  _103
REMARK   43  A    between atoms: _105  and  _107
REMARK   44  A    between atoms: _107  and  _108
REMARK   45  A    between atoms: _107  and  _110
REMARK   46  A    between atoms: _110  and  _111
REMARK   47  A    between atoms: _111  and  _112
REMARK   48  A    between atoms: _115  and  _117
REMARK   49  A    between atoms: _117  and  _118
REMARK   50  A    between atoms: _117  and  _120
REMARK   51  A    between atoms: _120  and  _121
REMARK   52  A    between atoms: _132  and  _133
REMARK   53  A    between atoms: _138  and  _140
REMARK   54  A    between atoms: _140  and  _141
REMARK   55  A    between atoms: _140  and  _143
REMARK   56  A    between atoms: _143  and  _144
REMARK   57  A    between atoms: _147  and  _148
REMARK   58  A    between atoms: _153  and  _155
REMARK   59  A    between atoms: _155  and  _156
REMARK   60  A    between atoms: _158  and  _160
REMARK   61  A    between atoms: _160  and  _161
REMARK   62  A    between atoms: _164  and  _166
REMARK   63  A    between atoms: _166  and  _167
REMARK   64  A    between atoms: _166  and  _169
REMARK   65  A    between atoms: _169  and  _170
REMARK   66  A    between atoms: _173  and  _175
REMARK   67  A    between atoms: _175  and  _176
REMARK   68  A    between atoms: _175  and  _178
REMARK   69  A    between atoms: _178  and  _179
REMARK   70  A    between atoms: _180  and  _181
REMARK   71  A    between atoms: _190  and  _192
REMARK   72  A    between atoms: _192  and  _193
REMARK   73  A    between atoms: _192  and  _195
REMARK   74  A    between atoms: _195  and  _196
REMARK   75  A    between atoms: _199  and  _201
REMARK   76  A    between atoms: _201  and  _202
REMARK   77  A    between atoms: _201  and  _204
REMARK   78  A    between atoms: _204  and  _205
REMARK   79  A    between atoms: _208  and  _210
REMARK   80  A    between atoms: _210  and  _211
REMARK   81  A    between atoms: _210  and  _213
REMARK   82  A    between atoms: _213  and  _214
REMARK   83  A    between atoms: _219  and  _221
REMARK   84  A    between atoms: _221  and  _222
REMARK   85  A    between atoms: _221  and  _224
REMARK   86  A    between atoms: _224  and  _225
REMARK   87  A    between atoms: _228  and  _230
REMARK   88  A    between atoms: _230  and  _231
REMARK   89  A    between atoms: _233  and  _235
REMARK   90  A    between atoms: _235  and  _236
REMARK   91  A    between atoms: _239  and  _241
REMARK   92  A    between atoms: _241  and  _242
REMARK   93  A    between atoms: _241  and  _244
REMARK   94  A    between atoms: _244  and  _245
REMARK   95  A    between atoms: _247  and  _249
REMARK   96  A    between atoms: _249  and  _250
REMARK   97  A    between atoms: _252  and  _254
REMARK   98  A    between atoms: _254  and  _255
REMARK   99  A    between atoms: _254  and  _257
REMARK  100  A    between atoms: _257  and  _258
REMARK  101  A    between atoms: _263  and  _265
REMARK  102  A    between atoms: _265  and  _266
REMARK  103  A    between atoms: _265  and  _268
REMARK  104  A    between atoms: _268  and  _269
REMARK  105  A    between atoms: _274  and  _276
REMARK  106  A    between atoms: _276  and  _277
REMARK  107  A    between atoms: _276  and  _279
REMARK  108  A    between atoms: _279  and  _280
REMARK                            x       y       z     vdW  Elec       q    Type
REMARK                         _______ _______ _______ _____ _____    ______ ____
ROOT
ATOM      1  C   ASN A   2      25.814  17.157   4.343  0.00  0.00    +0.241 C 
ATOM      2  N   SER A   3      26.486  17.517   5.402  0.00  0.00    -0.295 N 
ATOM      3  H   SER A   3      27.398  17.055   5.593  0.00  0.00    +0.150 HD
ATOM      4  O   ASN A   2      24.702  17.630   4.071  0.00  0.00    -0.273 OA
ENDROOT
BRANCH   2   5
ATOM      5  CA  SER A   3      26.015  18.539   6.330  0.00  0.00    +0.178 C 
BRANCH   5   6
ATOM      6  C   SER A   3      24.623  18.416   6.813  0.00  0.00    +0.243 C 
ATOM      7  N   TYR A   4      24.410  17.392   7.704  0.00  0.00    -0.298 N 
ATOM      8  H   TYR A   4      25.197  16.752   7.932  0.00  0.00    +0.150 HD
ATOM      9  O   SER A   3      23.680  19.166   6.517  0.00  0.00    -0.273 OA
BRANCH   7  10
ATOM     10  CA  TYR A   4      23.111  17.172   8.344  0.00  0.00    +0.141 C 
BRANCH  10  11
ATOM     11  C   TYR A   4      23.103  17.797   9.789  0.00  0.00    +0.227 C 
ATOM     12  O   TYR A   4      24.116  17.809  10.492  0.00  0.00    -0.286 OA
ENDBRANCH  10  11
BRANCH  10  13
ATOM     13  CB  TYR A   4      22.912  15.650   8.611  0.00  0.00    +0.054 C 
BRANCH  13  14
ATOM     14  CG  TYR A   4      22.709  14.914   7.268  0.00  0.00    -0.020 A 
ATOM     15  CD2 TYR A   4      23.811  14.175   6.758  0.00  0.00    -0.001 A 
ATOM     16  CE2 TYR A   4      23.637  13.536   5.530  0.00  0.00    +0.036 A 
ATOM     17  CZ  TYR A   4      22.453  13.667   4.820  0.00  0.00    +0.134 A 
ATOM     18  CE1 TYR A   4      21.406  14.425   5.274  0.00  0.00    +0.036 A 
ATOM     19  CD1 TYR A   4      21.534  15.083   6.547  0.00  0.00    -0.001 A 
BRANCH  17  20
ATOM     20  OH  TYR A   4      22.411  13.017   3.553  0.00  0.00    -0.506 OA
ATOM     21  HH  TYR A   4      21.528  13.172   3.133  0.00  0.00    +0.292 HD
ENDBRANCH  17  20
ENDBRANCH  13  14
ENDBRANCH  10  13
ENDBRANCH   7  10
ENDBRANCH   5   6
BRANCH   5  22
ATOM     22  CB  SER A   3      26.210  19.992   5.722  0.00  0.00    +0.166 C 
BRANCH  22  23
ATOM     23  OG  SER A   3      27.669  19.852   5.517  0.00  0.00    -0.380 OA
ATOM     24  H   SER A   3      28.027  20.687   5.124  0.00  0.00    +0.211 HD
ENDBRANCH  22  23
ENDBRANCH   5  22
ENDBRANCH   2   5
BRANCH   1  25
ATOM     25  CA  ASN A   2      26.559  16.119   3.448  0.00  0.00    +0.158 C 
BRANCH  25  27
ATOM     26  C   SER A   1      29.038  15.974   3.801  0.00  0.00    +0.241 C 
ATOM     27  N   ASN A   2      27.772  15.531   3.962  0.00  0.00    -0.297 N 
ATOM     28  H   ASN A   2      27.658  14.663   4.523  0.00  0.00    +0.150 HD
ATOM     29  O   SER A   1      29.331  16.994   3.152  0.00  0.00    -0.274 OA
BRANCH  26  30
ATOM     30  CA  SER A   1      30.168  15.199   4.415  0.00  0.00    +0.174 C 
BRANCH  30  31
ATOM     31  N   SER A   1      29.706  14.548   5.710  0.00  0.00    -0.236 NA
ATOM     32  H   SER A   1      29.731  13.516   5.836  0.00  0.00    +0.142 HD
ENDBRANCH  30  31
BRANCH  30  33
ATOM     33  CB  SER A   1      30.687  14.125   3.435  0.00  0.00    +0.163 C 
BRANCH  33  34
ATOM     34  OG  SER A   1      29.479  13.488   2.897  0.00  0.00    -0.380 OA
ATOM     35  H   SER A   1      28.960  13.087   3.639  0.00  0.00    +0.211 HD
ENDBRANCH  33  34
ENDBRANCH  30  33
ENDBRANCH  26  30
ENDBRANCH  25  27
BRANCH  25  36
ATOM     36  CB  ASN A   2      25.501  15.173   2.846  0.00  0.00    +0.114 C 
BRANCH  36  37
ATOM     37  CG  ASN A   2      25.951  14.147   1.818  0.00  0.00    +0.222 C 
ATOM     38  OD1 ASN A   2      25.114  13.188   1.683  0.00  0.00    -0.275 OA
ATOM     39  ND2 ASN A   2      27.126  14.342   1.207  0.00  0.00    -0.329 N 
ATOM     40 HD21 ASN A   2      27.695  15.183   1.430  0.00  0.00    +0.145 HD
ATOM     41 HD22 ASN A   2      27.470  13.652   0.509  0.00  0.00    +0.145 HD
ENDBRANCH  36  37
ENDBRANCH  25  36
ENDBRANCH   1  25
TORSDOF 17
REMARK  Name = ../refined-set-2016/6rnt/6rnt_pocket.pdb
REMARK  108 active torsions:
REMARK  status: ('A' for Active; 'I' for Inactive)
REMARK    1  A    between atoms: _1  and  _3
REMARK    2  A    between atoms: _3  and  _4
REMARK    3  A    between atoms: _3  and  _6
REMARK    4  A    between atoms: _6  and  _7
REMARK    5  A    between atoms: _9  and  _11
REMARK    6  A    between atoms: _11  and  _12
REMARK    7  A    between atoms: _11  and  _14
REMARK    8  A    between atoms: _14  and  _15
REMARK    9  A    between atoms: _20  and  _22
REMARK   10  A    between atoms: _22  and  _23
REMARK   11  A    between atoms: _22  and  _25
REMARK   12  A    between atoms: _25  and  _26
REMARK   13  A    between atoms: _28  and  _30
REMARK   14  A    between atoms: _30  and  _31
REMARK   15  A    between atoms: _30  and  _33
REMARK   16  A    between atoms: _33  and  _34
REMARK   17  A    between atoms: _39  and  _40
REMARK   18  A    between atoms: _42  and  _44
REMARK   19  A    between atoms: _44  and  _45
REMARK   20  A    between atoms: _44  and  _47
REMARK   21  A    between atoms: _47  and  _48
REMARK   22  A    between atoms: _53  and  _55
REMARK   23  A    between atoms: _55  and  _56
REMARK   24  A    between atoms: _55  and  _58
REMARK   25  A    between atoms: _58  and  _59
REMARK   26  A    between atoms: _59  and  _60
REMARK   27  A    between atoms: _60  and  _61
REMARK   28  A    between atoms: _61  and  _62
REMARK   29  A    between atoms: _66  and  _68
REMARK   30  A    between atoms: _68  and  _69
REMARK   31  A    between atoms: _68  and  _71
REMARK   32  A    between atoms: _71  and  _72
REMARK   33  A    between atoms: _77  and  _78
REMARK   34  A    between atoms: _80  and  _82
REMARK   35  A    between atoms: _82  and  _83
REMARK   36  A    between atoms: _82  and  _85
REMARK   37  A    between atoms: _85  and  _86
REMARK   38  A    between atoms: _91  and  _93
REMARK   39  A    between atoms: _93  and  _94
REMARK   40  A    between atoms: _93  and  _96
REMARK   41  A    between atoms: _96  and  _97
REMARK   42  A    between atoms: _102  and  _103
REMARK   43  A    between atoms: _105  and  _107
REMARK   44  A    between atoms: _107  and  _108
REMARK   45  A    between atoms: _107  and  _110
REMARK   46  A    between atoms: _110  and  _111
REMARK   47  A    between atoms: _111  and  _112
REMARK   48  A    between atoms: _115  and  _117
REMARK   49  A    between atoms: _117  and  _118
REMARK   50  A    between atoms: _117  and  _120
REMARK   51  A    between atoms: _120  and  _121
REMARK   52  A    between atoms: _132  and  _133
REMARK   53  A    between atoms: _138  and  _140
REMARK   54  A    between atoms: _140  and  _141
REMARK   55  A    between atoms: _140  and  _143
REMARK   56  A    between atoms: _143  and  _144
REMARK   57  A    between atoms: _147  and  _148
REMARK   58  A    between atoms: _153  and  _155
REMARK   59  A    between atoms: _155  and  _156
REMARK   60  A    between atoms: _158  and  _160
REMARK   61  A    between atoms: _160  and  _161
REMARK   62  A    between atoms: _164  and  _166
REMARK   63  A    between atoms: _166  and  _167
REMARK   64  A    between atoms: _166  and  _169
REMARK   65  A    between atoms: _169  and  _170
REMARK   66  A    between atoms: _173  and  _175
REMARK   67  A    between atoms: _175  and  _176
REMARK   68  A    between atoms: _175  and  _178
REMARK   69  A    between atoms: _178  and  _179
REMARK   70  A    between atoms: _180  and  _181
REMARK   71  A    between atoms: _190  and  _192
REMARK   72  A    between atoms: _192  and  _193
REMARK   73  A    between atoms: _192  and  _195
REMARK   74  A    between atoms: _195  and  _196
REMARK   75  A    between atoms: _199  and  _201
REMARK   76  A    between atoms: _201  and  _202
REMARK   77  A    between atoms: _201  and  _204
REMARK   78  A    between atoms: _204  and  _205
REMARK   79  A    between atoms: _208  and  _210
REMARK   80  A    between atoms: _210  and  _211
REMARK   81  A    between atoms: _210  and  _213
REMARK   82  A    between atoms: _213  and  _214
REMARK   83  A    between atoms: _219  and  _221
REMARK   84  A    between atoms: _221  and  _222
REMARK   85  A    between atoms: _221  and  _224
REMARK   86  A    between atoms: _224  and  _225
REMARK   87  A    between atoms: _228  and  _230
REMARK   88  A    between atoms: _230  and  _231
REMARK   89  A    between atoms: _233  and  _235
REMARK   90  A    between atoms: _235  and  _236
REMARK   91  A    between atoms: _239  and  _241
REMARK   92  A    between atoms: _241  and  _242
REMARK   93  A    between atoms: _241  and  _244
REMARK   94  A    between atoms: _244  and  _245
REMARK   95  A    between atoms: _247  and  _249
REMARK   96  A    between atoms: _249  and  _250
REMARK   97  A    between atoms: _252  and  _254
REMARK   98  A    between atoms: _254  and  _255
REMARK   99  A    between atoms: _254  and  _257
REMARK  100  A    between atoms: _257  and  _258
REMARK  101  A    between atoms: _263  and  _265
REMARK  102  A    between atoms: _265  and  _266
REMARK  103  A    between atoms: _265  and  _268
REMARK  104  A    between atoms: _268  and  _269
REMARK  105  A    between atoms: _274  and  _276
REMARK  106  A    between atoms: _276  and  _277
REMARK  107  A    between atoms: _276  and  _279
REMARK  108  A    between atoms: _279  and  _280
REMARK                            x       y       z     vdW  Elec       q    Type
REMARK                         _______ _______ _______ _____ _____    ______ ____
ROOT
ATOM      1  C   LYS A   2      15.914  20.750   4.058  0.00  0.00    +0.241 C 
ATOM      2  N   TYR A   3      14.648  20.499   4.173  0.00  0.00    -0.297 N 
ATOM      3  H   TYR A   3      14.070  21.022   4.862  0.00  0.00    +0.150 HD
ATOM      4  O   LYS A   2      16.718  20.164   3.284  0.00  0.00    -0.273 OA
ENDROOT
BRANCH   2   5
ATOM      5  CA  TYR A   3      14.038  19.474   3.325  0.00  0.00    +0.153 C 
BRANCH   5   6
ATOM      6  C   TYR A   3      12.940  20.259   2.556  0.00  0.00    +0.241 C 
ATOM      7  O   TYR A   3      12.161  20.917   3.273  0.00  0.00    -0.273 OA
ATOM      8  N   ASN A   4      12.896  20.039   1.223  0.00  0.00    -0.298 N 
ATOM      9  H   ASN A   4      13.591  19.421   0.758  0.00  0.00    +0.150 HD
BRANCH   8  10
ATOM     10  CA  ASN A   4      11.808  20.718   0.433  0.00  0.00    +0.146 C 
BRANCH  10  11
ATOM     11  C   ASN A   4      10.843  19.638   0.048  0.00  0.00    +0.227 C 
ATOM     12  O   ASN A   4      11.299  18.574  -0.506  0.00  0.00    -0.286 OA
ENDBRANCH  10  11
BRANCH  10  13
ATOM     13  CB  ASN A   4      12.554  21.446  -0.659  0.00  0.00    +0.112 C 
BRANCH  13  14
ATOM     14  CG  ASN A   4      13.378  22.579  -0.119  0.00  0.00    +0.222 C 
ATOM     15  OD1 ASN A   4      12.827  23.558   0.424  0.00  0.00    -0.275 OA
ATOM     16  ND2 ASN A   4      14.649  22.437  -0.324  0.00  0.00    -0.329 N 
ATOM     17 HD21 ASN A   4      15.310  23.182  -0.025  0.00  0.00    +0.145 HD
ATOM     18 HD22 ASN A   4      15.008  21.578  -0.787  0.00  0.00    +0.145 HD
ENDBRANCH  13  14
ENDBRANCH  10  13
ENDBRANCH   8  10
ENDBRANCH   5   6
BRANCH   5  19
ATOM     19  CB  TYR A   3      13.511  18.284   4.129  0.00  0.00    +0.055 C 
BRANCH  19  20
ATOM     20  CG  TYR A   3      12.427  17.471   3.375  0.00  0.00    -0.020 A 
ATOM     21  CD2 TYR A   3      11.102  17.765   3.613  0.00  0.00    -0.001 A 
ATOM     22  CE2 TYR A   3      10.181  17.042   2.893  0.00  0.00    +0.036 A 
ATOM     23  CZ  TYR A   3      10.658  16.054   2.043  0.00  0.00    +0.134 A 
ATOM     24  CE1 TYR A   3      11.938  15.736   1.857  0.00  0.00    +0.036 A 
ATOM     25  CD1 TYR A   3      12.971  16.450   2.551  0.00  0.00    -0.001 A 
BRANCH  23  26
ATOM     26  OH  TYR A   3       9.603  15.386   1.415  0.00  0.00    -0.506 OA
ATOM     27  HH  TYR A   3       9.072  16.033   0.886  0.00  0.00    +0.292 HD
ENDBRANCH  23  26
ENDBRANCH  19  20
ENDBRANCH   5  19
ENDBRANCH   2   5
BRANCH   1  28
ATOM     28  CA  LYS A   2      16.540  21.838   4.939  0.00  0.00    +0.149 C 
BRANCH  28  31
ATOM     29  C   HIS A   1      18.327  20.519   5.976  0.00  0.00    +0.239 C 
ATOM     30  O   HIS A   1      17.481  19.653   6.244  0.00  0.00    -0.274 OA
ATOM     31  N   LYS A   2      17.957  21.599   5.308  0.00  0.00    -0.297 N 
ATOM     32  H   LYS A   2      18.677  22.298   5.035  0.00  0.00    +0.150 HD
BRANCH  29  33
ATOM     33  CA  HIS A   1      19.800  20.386   6.303  0.00  0.00    +0.151 C 
BRANCH  33  34
ATOM     34  N   HIS A   1      19.831  19.327   7.338  0.00  0.00    -0.238 NA
ATOM     35  H   HIS A   1      19.229  18.483   7.260  0.00  0.00    +0.142 HD
ENDBRANCH  33  34
BRANCH  33  36
ATOM     36  CB  HIS A   1      20.911  20.051   5.210  0.00  0.00    +0.074 C 
BRANCH  36  37
ATOM     37  CG  HIS A   1      20.463  18.894   4.332  0.00  0.00    +0.082 A 
ATOM     38  CD2 HIS A   1      21.306  17.808   4.155  0.00  0.00    +0.115 A 
ATOM     39  NE2 HIS A   1      20.571  17.108   3.310  0.00  0.00    -0.221 NA
ATOM     40  CE1 HIS A   1      19.462  17.488   2.938  0.00  0.00    +0.199 A 
ATOM     41  ND1 HIS A   1      19.368  18.688   3.579  0.00  0.00    -0.227 NA
ENDBRANCH  36  37
ENDBRANCH  33  36
ENDBRANCH  29  33
ENDBRANCH  28  31
BRANCH  28  42
ATOM     42  CB  LYS A   2      16.679  23.180   4.113  0.00  0.00    +0.029 C 
BRANCH  42  43
ATOM     43  CG  LYS A   2      16.110  24.316   4.957  0.00  0.00    +0.000 C 
BRANCH  43  44
ATOM     44  CD  LYS A   2      14.600  24.481   4.868  0.00  0.00    -0.024 C 
BRANCH  44  45
ATOM     45  CE  LYS A   2      14.226  25.576   3.868  0.00  0.00    -0.086 C 
BRANCH  45  46
ATOM     46  NZ  LYS A   2      13.900  25.036   2.505  0.00  0.00    +0.380 N 
ATOM     47  HZ1 LYS A   2      13.094  24.382   2.576  0.00  0.00    -0.089 HD
ATOM     48  HZ2 LYS A   2      14.726  24.530   2.127  0.00  0.00    -0.089 HD
ATOM     49  HZ3 LYS A   2      13.655  25.823   1.871  0.00  0.00    -0.089 HD
ENDBRANCH  45  46
ENDBRANCH  44  45
ENDBRANCH  43  44
ENDBRANCH  42  43
ENDBRANCH  28  42
ENDBRANCH   1  28
TORSDOF 20
REMARK  Name = ../refined-set-2016/6rnt/6rnt_pocket.pdb
REMARK  108 active torsions:
REMARK  status: ('A' for Active; 'I' for Inactive)
REMARK    1  A    between atoms: _1  and  _3
REMARK    2  A    between atoms: _3  and  _4
REMARK    3  A    between atoms: _3  and  _6
REMARK    4  A    between atoms: _6  and  _7
REMARK    5  A    between atoms: _9  and  _11
REMARK    6  A    between atoms: _11  and  _12
REMARK    7  A    between atoms: _11  and  _14
REMARK    8  A    between atoms: _14  and  _15
REMARK    9  A    between atoms: _20  and  _22
REMARK   10  A    between atoms: _22  and  _23
REMARK   11  A    between atoms: _22  and  _25
REMARK   12  A    between atoms: _25  and  _26
REMARK   13  A    between atoms: _28  and  _30
REMARK   14  A    between atoms: _30  and  _31
REMARK   15  A    between atoms: _30  and  _33
REMARK   16  A    between atoms: _33  and  _34
REMARK   17  A    between atoms: _39  and  _40
REMARK   18  A    between atoms: _42  and  _44
REMARK   19  A    between atoms: _44  and  _45
REMARK   20  A    between atoms: _44  and  _47
REMARK   21  A    between atoms: _47  and  _48
REMARK   22  A    between atoms: _53  and  _55
REMARK   23  A    between atoms: _55  and  _56
REMARK   24  A    between atoms: _55  and  _58
REMARK   25  A    between atoms: _58  and  _59
REMARK   26  A    between atoms: _59  and  _60
REMARK   27  A    between atoms: _60  and  _61
REMARK   28  A    between atoms: _61  and  _62
REMARK   29  A    between atoms: _66  and  _68
REMARK   30  A    between atoms: _68  and  _69
REMARK   31  A    between atoms: _68  and  _71
REMARK   32  A    between atoms: _71  and  _72
REMARK   33  A    between atoms: _77  and  _78
REMARK   34  A    between atoms: _80  and  _82
REMARK   35  A    between atoms: _82  and  _83
REMARK   36  A    between atoms: _82  and  _85
REMARK   37  A    between atoms: _85  and  _86
REMARK   38  A    between atoms: _91  and  _93
REMARK   39  A    between atoms: _93  and  _94
REMARK   40  A    between atoms: _93  and  _96
REMARK   41  A    between atoms: _96  and  _97
REMARK   42  A    between atoms: _102  and  _103
REMARK   43  A    between atoms: _105  and  _107
REMARK   44  A    between atoms: _107  and  _108
REMARK   45  A    between atoms: _107  and  _110
REMARK   46  A    between atoms: _110  and  _111
REMARK   47  A    between atoms: _111  and  _112
REMARK   48  A    between atoms: _115  and  _117
REMARK   49  A    between atoms: _117  and  _118
REMARK   50  A    between atoms: _117  and  _120
REMARK   51  A    between atoms: _120  and  _121
REMARK   52  A    between atoms: _132  and  _133
REMARK   53  A    between atoms: _138  and  _140
REMARK   54  A    between atoms: _140  and  _141
REMARK   55  A    between atoms: _140  and  _143
REMARK   56  A    between atoms: _143  and  _144
REMARK   57  A    between atoms: _147  and  _148
REMARK   58  A    between atoms: _153  and  _155
REMARK   59  A    between atoms: _155  and  _156
REMARK   60  A    between atoms: _158  and  _160
REMARK   61  A    between atoms: _160  and  _161
REMARK   62  A    between atoms: _164  and  _166
REMARK   63  A    between atoms: _166  and  _167
REMARK   64  A    between atoms: _166  and  _169
REMARK   65  A    between atoms: _169  and  _170
REMARK   66  A    between atoms: _173  and  _175
REMARK   67  A    between atoms: _175  and  _176
REMARK   68  A    between atoms: _175  and  _178
REMARK   69  A    between atoms: _178  and  _179
REMARK   70  A    between atoms: _180  and  _181
REMARK   71  A    between atoms: _190  and  _192
REMARK   72  A    between atoms: _192  and  _193
REMARK   73  A    between atoms: _192  and  _195
REMARK   74  A    between atoms: _195  and  _196
REMARK   75  A    between atoms: _199  and  _201
REMARK   76  A    between atoms: _201  and  _202
REMARK   77  A    between atoms: _201  and  _204
REMARK   78  A    between atoms: _204  and  _205
REMARK   79  A    between atoms: _208  and  _210
REMARK   80  A    between atoms: _210  and  _211
REMARK   81  A    between atoms: _210  and  _213
REMARK   82  A    between atoms: _213  and  _214
REMARK   83  A    between atoms: _219  and  _221
REMARK   84  A    between atoms: _221  and  _222
REMARK   85  A    between atoms: _221  and  _224
REMARK   86  A    between atoms: _224  and  _225
REMARK   87  A    between atoms: _228  and  _230
REMARK   88  A    between atoms: _230  and  _231
REMARK   89  A    between atoms: _233  and  _235
REMARK   90  A    between atoms: _235  and  _236
REMARK   91  A    between atoms: _239  and  _241
REMARK   92  A    between atoms: _241  and  _242
REMARK   93  A    between atoms: _241  and  _244
REMARK   94  A    between atoms: _244  and  _245
REMARK   95  A    between atoms: _247  and  _249
REMARK   96  A    between atoms: _249  and  _250
REMARK   97  A    between atoms: _252  and  _254
REMARK   98  A    between atoms: _254  and  _255
REMARK   99  A    between atoms: _254  and  _257
REMARK  100  A    between atoms: _257  and  _258
REMARK  101  A    between atoms: _263  and  _265
REMARK  102  A    between atoms: _265  and  _266
REMARK  103  A    between atoms: _265  and  _268
REMARK  104  A    between atoms: _268  and  _269
REMARK  105  A    between atoms: _274  and  _276
REMARK  106  A    between atoms: _276  and  _277
REMARK  107  A    between atoms: _276  and  _279
REMARK  108  A    between atoms: _279  and  _280
REMARK                            x       y       z     vdW  Elec       q    Type
REMARK                         _______ _______ _______ _____ _____    ______ ____
ROOT
ATOM      1  CG  TYR A   1      10.712  17.973  -4.651  0.00  0.00    -0.020 A 
ATOM      2  CD2 TYR A   1      11.853  18.280  -3.924  0.00  0.00    -0.001 A 
ATOM      3  CE2 TYR A   1      12.887  17.338  -3.841  0.00  0.00    +0.036 A 
ATOM      4  CZ  TYR A   1      12.788  16.136  -4.534  0.00  0.00    +0.134 A 
ATOM      5  CE1 TYR A   1      11.664  15.820  -5.307  0.00  0.00    +0.036 A 
ATOM      6  CD1 TYR A   1      10.627  16.771  -5.379  0.00  0.00    -0.001 A 
ENDROOT
BRANCH   4   7
ATOM      7  OH  TYR A   1      13.809  15.232  -4.454  0.00  0.00    -0.506 OA
ATOM      8  HH  TYR A   1      13.587  14.436  -4.999  0.00  0.00    +0.292 HD
ENDBRANCH   4   7
BRANCH   1   9
ATOM      9  CB  TYR A   1       9.649  19.031  -4.694  0.00  0.00    +0.051 C 
BRANCH   9  10
ATOM     10  CA  TYR A   1       8.475  18.653  -3.734  0.00  0.00    +0.137 C 
BRANCH  10  11
ATOM     11  N   TYR A   1       8.977  18.635  -2.295  0.00  0.00    -0.239 NA
ATOM     12  H   TYR A   1       9.987  18.547  -2.062  0.00  0.00    +0.142 HD
ENDBRANCH  10  11
BRANCH  10  13
ATOM     13  C   TYR A   1       7.692  17.415  -4.042  0.00  0.00    +0.224 C 
ATOM     14  O   TYR A   1       6.918  17.430  -5.013  0.00  0.00    -0.287 OA
ENDBRANCH  10  13
ENDBRANCH   9  10
ENDBRANCH   1   9
TORSDOF 5
REMARK  Name = ../refined-set-2016/6rnt/6rnt_pocket.pdb
REMARK  108 active torsions:
REMARK  status: ('A' for Active; 'I' for Inactive)
REMARK    1  A    between atoms: _1  and  _3
REMARK    2  A    between atoms: _3  and  _4
REMARK    3  A    between atoms: _3  and  _6
REMARK    4  A    between atoms: _6  and  _7
REMARK    5  A    between atoms: _9  and  _11
REMARK    6  A    between atoms: _11  and  _12
REMARK    7  A    between atoms: _11  and  _14
REMARK    8  A    between atoms: _14  and  _15
REMARK    9  A    between atoms: _20  and  _22
REMARK   10  A    between atoms: _22  and  _23
REMARK   11  A    between atoms: _22  and  _25
REMARK   12  A    between atoms: _25  and  _26
REMARK   13  A    between atoms: _28  and  _30
REMARK   14  A    between atoms: _30  and  _31
REMARK   15  A    between atoms: _30  and  _33
REMARK   16  A    between atoms: _33  and  _34
REMARK   17  A    between atoms: _39  and  _40
REMARK   18  A    between atoms: _42  and  _44
REMARK   19  A    between atoms: _44  and  _45
REMARK   20  A    between atoms: _44  and  _47
REMARK   21  A    between atoms: _47  and  _48
REMARK   22  A    between atoms: _53  and  _55
REMARK   23  A    between atoms: _55  and  _56
REMARK   24  A    between atoms: _55  and  _58
REMARK   25  A    between atoms: _58  and  _59
REMARK   26  A    between atoms: _59  and  _60
REMARK   27  A    between atoms: _60  and  _61
REMARK   28  A    between atoms: _61  and  _62
REMARK   29  A    between atoms: _66  and  _68
REMARK   30  A    between atoms: _68  and  _69
REMARK   31  A    between atoms: _68  and  _71
REMARK   32  A    between atoms: _71  and  _72
REMARK   33  A    between atoms: _77  and  _78
REMARK   34  A    between atoms: _80  and  _82
REMARK   35  A    between atoms: _82  and  _83
REMARK   36  A    between atoms: _82  and  _85
REMARK   37  A    between atoms: _85  and  _86
REMARK   38  A    between atoms: _91  and  _93
REMARK   39  A    between atoms: _93  and  _94
REMARK   40  A    between atoms: _93  and  _96
REMARK   41  A    between atoms: _96  and  _97
REMARK   42  A    between atoms: _102  and  _103
REMARK   43  A    between atoms: _105  and  _107
REMARK   44  A    between atoms: _107  and  _108
REMARK   45  A    between atoms: _107  and  _110
REMARK   46  A    between atoms: _110  and  _111
REMARK   47  A    between atoms: _111  and  _112
REMARK   48  A    between atoms: _115  and  _117
REMARK   49  A    between atoms: _117  and  _118
REMARK   50  A    between atoms: _117  and  _120
REMARK   51  A    between atoms: _120  and  _121
REMARK   52  A    between atoms: _132  and  _133
REMARK   53  A    between atoms: _138  and  _140
REMARK   54  A    between atoms: _140  and  _141
REMARK   55  A    between atoms: _140  and  _143
REMARK   56  A    between atoms: _143  and  _144
REMARK   57  A    between atoms: _147  and  _148
REMARK   58  A    between atoms: _153  and  _155
REMARK   59  A    between atoms: _155  and  _156
REMARK   60  A    between atoms: _158  and  _160
REMARK   61  A    between atoms: _160  and  _161
REMARK   62  A    between atoms: _164  and  _166
REMARK   63  A    between atoms: _166  and  _167
REMARK   64  A    between atoms: _166  and  _169
REMARK   65  A    between atoms: _169  and  _170
REMARK   66  A    between atoms: _173  and  _175
REMARK   67  A    between atoms: _175  and  _176
REMARK   68  A    between atoms: _175  and  _178
REMARK   69  A    between atoms: _178  and  _179
REMARK   70  A    between atoms: _180  and  _181
REMARK   71  A    between atoms: _190  and  _192
REMARK   72  A    between atoms: _192  and  _193
REMARK   73  A    between atoms: _192  and  _195
REMARK   74  A    between atoms: _195  and  _196
REMARK   75  A    between atoms: _199  and  _201
REMARK   76  A    between atoms: _201  and  _202
REMARK   77  A    between atoms: _201  and  _204
REMARK   78  A    between atoms: _204  and  _205
REMARK   79  A    between atoms: _208  and  _210
REMARK   80  A    between atoms: _210  and  _211
REMARK   81  A    between atoms: _210  and  _213
REMARK   82  A    between atoms: _213  and  _214
REMARK   83  A    between atoms: _219  and  _221
REMARK   84  A    between atoms: _221  and  _222
REMARK   85  A    between atoms: _221  and  _224
REMARK   86  A    between atoms: _224  and  _225
REMARK   87  A    between atoms: _228  and  _230
REMARK   88  A    between atoms: _230  and  _231
REMARK   89  A    between atoms: _233  and  _235
REMARK   90  A    between atoms: _235  and  _236
REMARK   91  A    between atoms: _239  and  _241
REMARK   92  A    between atoms: _241  and  _242
REMARK   93  A    between atoms: _241  and  _244
REMARK   94  A    between atoms: _244  and  _245
REMARK   95  A    between atoms: _247  and  _249
REMARK   96  A    between atoms: _249  and  _250
REMARK   97  A    between atoms: _252  and  _254
REMARK   98  A    between atoms: _254  and  _255
REMARK   99  A    between atoms: _254  and  _257
REMARK  100  A    between atoms: _257  and  _258
REMARK  101  A    between atoms: _263  and  _265
REMARK  102  A    between atoms: _265  and  _266
REMARK  103  A    between atoms: _265  and  _268
REMARK  104  A    between atoms: _268  and  _269
REMARK  105  A    between atoms: _274  and  _276
REMARK  106  A    between atoms: _276  and  _277
REMARK  107  A    between atoms: _276  and  _279
REMARK  108  A    between atoms: _279  and  _280
REMARK                            x       y       z     vdW  Elec       q    Type
REMARK                         _______ _______ _______ _____ _____    ______ ____
ROOT
ATOM      1  CA  TRP A   2      18.418  14.136   9.765  0.00  0.00    +0.153 C 
ENDROOT
BRANCH   1   2
ATOM      2  C   TRP A   2      18.439  12.588   9.615  0.00  0.00    +0.244 C 
ATOM      3  O   TRP A   2      17.340  12.041   9.713  0.00  0.00    -0.273 OA
ATOM      4  N   PRO A   3      19.578  12.017   9.374  0.00  0.00    -0.273 N 
ATOM      5  CD  PRO A   3      20.896  12.596   9.228  0.00  0.00    +0.094 C 
ATOM      6  CG  PRO A   3      21.648  11.577   8.306  0.00  0.00    +0.024 C 
ATOM      7  CB  PRO A   3      21.018  10.305   8.848  0.00  0.00    +0.030 C 
ATOM      8  CA  PRO A   3      19.562  10.582   9.200  0.00  0.00    +0.140 C 
BRANCH   8   9
ATOM      9  C   PRO A   3      19.121   9.872  10.498  0.00  0.00    +0.227 C 
ATOM     10  O   PRO A   3      19.536  10.224  11.603  0.00  0.00    -0.286 OA
ENDBRANCH   8   9
ENDBRANCH   1   2
BRANCH   1  12
ATOM     11  C   GLU A   1      17.261  15.858   8.297  0.00  0.00    +0.238 C 
ATOM     12  N   TRP A   2      17.249  14.704   8.948  0.00  0.00    -0.297 N 
ATOM     13  H   TRP A   2      16.378  14.138   8.902  0.00  0.00    +0.150 HD
ATOM     14  O   GLU A   1      18.275  16.557   8.190  0.00  0.00    -0.274 OA
BRANCH  11  15
ATOM     15  CA  GLU A   1      16.004  16.259   7.582  0.00  0.00    +0.145 C 
BRANCH  15  16
ATOM     16  N   GLU A   1      15.906  17.726   7.548  0.00  0.00    -0.238 NA
ATOM     17  H   GLU A   1      16.629  18.313   7.084  0.00  0.00    +0.142 HD
ENDBRANCH  15  16
BRANCH  15  18
ATOM     18  CB  GLU A   1      15.911  15.439   6.293  0.00  0.00    +0.038 C 
BRANCH  18  19
ATOM     19  CG  GLU A   1      16.819  16.096   5.289  0.00  0.00    +0.116 C 
BRANCH  19  20
ATOM     20  CD  GLU A   1      17.183  15.417   3.995  0.00  0.00    +0.365 C 
ATOM     21  OE2 GLU A   1      17.882  14.445   4.071  0.00  0.00    -0.246 OA
ATOM     22  OE1 GLU A   1      16.839  15.895   2.926  0.00  0.00    -0.246 OA
ENDBRANCH  19  20
ENDBRANCH  18  19
ENDBRANCH  15  18
ENDBRANCH  11  15
ENDBRANCH   1  12
BRANCH   1  23
ATOM     23  CB  TRP A   2      18.104  14.680  11.238  0.00  0.00    +0.057 C 
BRANCH  23  24
ATOM     24  CG  TRP A   2      19.065  14.018  12.209  0.00  0.00    -0.002 A 
ATOM     25  CD1 TRP A   2      18.677  12.954  13.003  0.00  0.00    +0.068 A 
ATOM     26  NE1 TRP A   2      19.804  12.571  13.762  0.00  0.00    -0.352 N 
ATOM     27  HE1 TRP A   2      19.846  11.813  14.473  0.00  0.00    +0.166 HD
ATOM     28  CE2 TRP A   2      20.861  13.416  13.369  0.00  0.00    +0.056 A 
ATOM     29  CZ2 TRP A   2      22.136  13.369  13.883  0.00  0.00    +0.017 A 
ATOM     30  CH2 TRP A   2      23.035  14.286  13.377  0.00  0.00    +0.001 A 
ATOM     31  CZ3 TRP A   2      22.613  15.221  12.383  0.00  0.00    +0.000 A 
ATOM     32  CE3 TRP A   2      21.339  15.249  11.934  0.00  0.00    +0.001 A 
ATOM     33  CD2 TRP A   2      20.450  14.331  12.468  0.00  0.00    +0.013 A 
ENDBRANCH  23  24
ENDBRANCH   1  23
TORSDOF 10
REMARK  Name = ../refined-set-2016/6rnt/6rnt_pocket.pdb
REMARK  108 active torsions:
REMARK  status: ('A' for Active; 'I' for Inactive)
REMARK    1  A    between atoms: _1  and  _3
REMARK    2  A    between atoms: _3  and  _4
REMARK    3  A    between atoms: _3  and  _6
REMARK    4  A    between atoms: _6  and  _7
REMARK    5  A    between atoms: _9  and  _11
REMARK    6  A    between atoms: _11  and  _12
REMARK    7  A    between atoms: _11  and  _14
REMARK    8  A    between atoms: _14  and  _15
REMARK    9  A    between atoms: _20  and  _22
REMARK   10  A    between atoms: _22  and  _23
REMARK   11  A    between atoms: _22  and  _25
REMARK   12  A    between atoms: _25  and  _26
REMARK   13  A    between atoms: _28  and  _30
REMARK   14  A    between atoms: _30  and  _31
REMARK   15  A    between atoms: _30  and  _33
REMARK   16  A    between atoms: _33  and  _34
REMARK   17  A    between atoms: _39  and  _40
REMARK   18  A    between atoms: _42  and  _44
REMARK   19  A    between atoms: _44  and  _45
REMARK   20  A    between atoms: _44  and  _47
REMARK   21  A    between atoms: _47  and  _48
REMARK   22  A    between atoms: _53  and  _55
REMARK   23  A    between atoms: _55  and  _56
REMARK   24  A    between atoms: _55  and  _58
REMARK   25  A    between atoms: _58  and  _59
REMARK   26  A    between atoms: _59  and  _60
REMARK   27  A    between atoms: _60  and  _61
REMARK   28  A    between atoms: _61  and  _62
REMARK   29  A    between atoms: _66  and  _68
REMARK   30  A    between atoms: _68  and  _69
REMARK   31  A    between atoms: _68  and  _71
REMARK   32  A    between atoms: _71  and  _72
REMARK   33  A    between atoms: _77  and  _78
REMARK   34  A    between atoms: _80  and  _82
REMARK   35  A    between atoms: _82  and  _83
REMARK   36  A    between atoms: _82  and  _85
REMARK   37  A    between atoms: _85  and  _86
REMARK   38  A    between atoms: _91  and  _93
REMARK   39  A    between atoms: _93  and  _94
REMARK   40  A    between atoms: _93  and  _96
REMARK   41  A    between atoms: _96  and  _97
REMARK   42  A    between atoms: _102  and  _103
REMARK   43  A    between atoms: _105  and  _107
REMARK   44  A    between atoms: _107  and  _108
REMARK   45  A    between atoms: _107  and  _110
REMARK   46  A    between atoms: _110  and  _111
REMARK   47  A    between atoms: _111  and  _112
REMARK   48  A    between atoms: _115  and  _117
REMARK   49  A    between atoms: _117  and  _118
REMARK   50  A    between atoms: _117  and  _120
REMARK   51  A    between atoms: _120  and  _121
REMARK   52  A    between atoms: _132  and  _133
REMARK   53  A    between atoms: _138  and  _140
REMARK   54  A    between atoms: _140  and  _141
REMARK   55  A    between atoms: _140  and  _143
REMARK   56  A    between atoms: _143  and  _144
REMARK   57  A    between atoms: _147  and  _148
REMARK   58  A    between atoms: _153  and  _155
REMARK   59  A    between atoms: _155  and  _156
REMARK   60  A    between atoms: _158  and  _160
REMARK   61  A    between atoms: _160  and  _161
REMARK   62  A    between atoms: _164  and  _166
REMARK   63  A    between atoms: _166  and  _167
REMARK   64  A    between atoms: _166  and  _169
REMARK   65  A    between atoms: _169  and  _170
REMARK   66  A    between atoms: _173  and  _175
REMARK   67  A    between atoms: _175  and  _176
REMARK   68  A    between atoms: _175  and  _178
REMARK   69  A    between atoms: _178  and  _179
REMARK   70  A    between atoms: _180  and  _181
REMARK   71  A    between atoms: _190  and  _192
REMARK   72  A    between atoms: _192  and  _193
REMARK   73  A    between atoms: _192  and  _195
REMARK   74  A    between atoms: _195  and  _196
REMARK   75  A    between atoms: _199  and  _201
REMARK   76  A    between atoms: _201  and  _202
REMARK   77  A    between atoms: _201  and  _204
REMARK   78  A    between atoms: _204  and  _205
REMARK   79  A    between atoms: _208  and  _210
REMARK   80  A    between atoms: _210  and  _211
REMARK   81  A    between atoms: _210  and  _213
REMARK   82  A    between atoms: _213  and  _214
REMARK   83  A    between atoms: _219  and  _221
REMARK   84  A    between atoms: _221  and  _222
REMARK   85  A    between atoms: _221  and  _224
REMARK   86  A    between atoms: _224  and  _225
REMARK   87  A    between atoms: _228  and  _230
REMARK   88  A    between atoms: _230  and  _231
REMARK   89  A    between atoms: _233  and  _235
REMARK   90  A    between atoms: _235  and  _236
REMARK   91  A    between atoms: _239  and  _241
REMARK   92  A    between atoms: _241  and  _242
REMARK   93  A    between atoms: _241  and  _244
REMARK   94  A    between atoms: _244  and  _245
REMARK   95  A    between atoms: _247  and  _249
REMARK   96  A    between atoms: _249  and  _250
REMARK   97  A    between atoms: _252  and  _254
REMARK   98  A    between atoms: _254  and  _255
REMARK   99  A    between atoms: _254  and  _257
REMARK  100  A    between atoms: _257  and  _258
REMARK  101  A    between atoms: _263  and  _265
REMARK  102  A    between atoms: _265  and  _266
REMARK  103  A    between atoms: _265  and  _268
REMARK  104  A    between atoms: _268  and  _269
REMARK  105  A    between atoms: _274  and  _276
REMARK  106  A    between atoms: _276  and  _277
REMARK  107  A    between atoms: _276  and  _279
REMARK  108  A    between atoms: _279  and  _280
REMARK                            x       y       z     vdW  Elec       q    Type
REMARK                         _______ _______ _______ _____ _____    ______ ____
ROOT
ATOM      1  C   ALA A   4      17.782   6.646   3.861  0.00  0.00    +0.241 C 
ATOM      2  N   ASP A   5      17.729   6.477   5.210  0.00  0.00    -0.297 N 
ATOM      3  H   ASP A   5      18.533   6.049   5.711  0.00  0.00    +0.150 HD
ATOM      4  O   ALA A   4      16.900   7.259   3.265  0.00  0.00    -0.273 OA
ENDROOT
BRANCH   1   5
ATOM      5  CA  ALA A   4      18.959   6.095   3.206  0.00  0.00    +0.149 C 
ATOM      6  CB  ALA A   4      18.331   4.775   2.549  0.00  0.00    +0.031 C 
BRANCH   5   8
ATOM      7  C   GLY A   3      21.158   6.164   4.128  0.00  0.00    +0.243 C 
ATOM      8  N   ALA A   4      20.056   5.526   4.008  0.00  0.00    -0.297 N 
ATOM      9  H   ALA A   4      19.934   4.606   4.477  0.00  0.00    +0.150 HD
ATOM     10  O   GLY A   3      21.376   7.237   3.652  0.00  0.00    -0.273 OA
BRANCH   7  11
ATOM     11  CA  GLY A   3      22.278   5.423   4.955  0.00  0.00    +0.176 C 
BRANCH  11  14
ATOM     12  C   PRO A   2      22.996   7.313   6.171  0.00  0.00    +0.241 C 
ATOM     13  O   PRO A   2      21.869   7.481   6.688  0.00  0.00    -0.273 OA
ATOM     14  N   GLY A   3      23.309   6.369   5.280  0.00  0.00    -0.295 N 
ATOM     15  H   GLY A   3      24.252   6.321   4.843  0.00  0.00    +0.150 HD
BRANCH  12  19
ATOM     16  C   SER A   1      26.226   7.287   6.468  0.00  0.00    +0.244 C 
ATOM     17  O   SER A   1      25.951   6.655   7.521  0.00  0.00    -0.273 OA
ATOM     18  N   PRO A   2      25.320   8.093   5.925  0.00  0.00    -0.272 N 
ATOM     19  CA  PRO A   2      24.044   8.359   6.500  0.00  0.00    +0.152 C 
ATOM     20  CB  PRO A   2      23.598   9.683   5.830  0.00  0.00    +0.031 C 
ATOM     21  CG  PRO A   2      24.282   9.632   4.498  0.00  0.00    +0.024 C 
ATOM     22  CD  PRO A   2      25.638   8.925   4.677  0.00  0.00    +0.094 C 
BRANCH  16  23
ATOM     23  CA  SER A   1      27.546   7.035   5.856  0.00  0.00    +0.175 C 
BRANCH  23  24
ATOM     24  N   SER A   1      28.692   7.246   6.757  0.00  0.00    -0.236 NA
ATOM     25  H   SER A   1      29.335   6.473   7.023  0.00  0.00    +0.142 HD
ENDBRANCH  23  24
BRANCH  23  26
ATOM     26  CB  SER A   1      27.649   5.583   5.324  0.00  0.00    +0.163 C 
BRANCH  26  27
ATOM     27  OG  SER A   1      26.520   5.371   4.409  0.00  0.00    -0.380 OA
ATOM     28  H   SER A   1      26.556   4.449   4.050  0.00  0.00    +0.211 HD
ENDBRANCH  26  27
ENDBRANCH  23  26
ENDBRANCH  16  23
ENDBRANCH  12  19
ENDBRANCH  11  14
ENDBRANCH   7  11
ENDBRANCH   5   8
ENDBRANCH   1   5
BRANCH   2  29
ATOM     29  CA  ASP A   5      16.519   6.905   5.973  0.00  0.00    +0.160 C 
BRANCH  29  30
ATOM     30  C   ASP A   5      16.617   8.246   6.678  0.00  0.00    +0.241 C 
ATOM     31  O   ASP A   5      17.757   8.479   7.082  0.00  0.00    -0.273 OA
ATOM     32  N   ARG A   6      15.482   8.909   6.762  0.00  0.00    -0.298 N 
ATOM     33  H   ARG A   6      14.586   8.517   6.407  0.00  0.00    +0.150 HD
BRANCH  32  34
ATOM     34  CA  ARG A   6      15.560  10.248   7.393  0.00  0.00    +0.141 C 
BRANCH  34  35
ATOM     35  C   ARG A   6      14.304  10.545   8.265  0.00  0.00    +0.227 C 
ATOM     36  O   ARG A   6      13.249  10.051   7.970  0.00  0.00    -0.286 OA
ENDBRANCH  34  35
BRANCH  34  37
ATOM     37  CB  ARG A   6      15.588  11.465   6.363  0.00  0.00    +0.057 C 
BRANCH  37  38
ATOM     38  CG  ARG A   6      16.565  11.247   5.195  0.00  0.00    +0.012 C 
ATOM     39  CD  ARG A   6      17.993  11.578   5.488  0.00  0.00    +0.143 C 
BRANCH  39  40
ATOM     40  NE  ARG A   6      19.081  11.424   4.515  0.00  0.00    -0.243 N 
ATOM     41  CZ  ARG A   6      19.834  10.386   4.365  0.00  0.00    +0.346 C 
ATOM     42  NH2 ARG A   6      19.717   9.327   5.249  0.00  0.00    -0.292 N 
ATOM     43 HH21 ARG A   6      19.027   9.372   6.026  0.00  0.00    +0.255 HD
ATOM     44 HH22 ARG A   6      20.319   8.487   5.136  0.00  0.00    +0.255 HD
ATOM     45  NH1 ARG A   6      20.746  10.209   3.382  0.00  0.00    -0.292 N 
ATOM     46 HH11 ARG A   6      21.307   9.334   3.345  0.00  0.00    +0.255 HD
ATOM     47 HH12 ARG A   6      20.886  10.948   2.663  0.00  0.00    +0.255 HD
ATOM     48  HE  ARG A   6      19.263  12.230   3.884  0.00  0.00    +0.265 HD
ENDBRANCH  39  40
ENDBRANCH  37  38
ENDBRANCH  34  37
ENDBRANCH  32  34
ENDBRANCH  29  30
BRANCH  29  49
ATOM     49  CB  ASP A   5      16.142   5.759   6.914  0.00  0.00    +0.143 C 
BRANCH  49  50
ATOM     50  CG  ASP A   5      15.999   4.392   6.317  0.00  0.00    +0.367 C 
ATOM     51  OD2 ASP A   5      16.169   3.388   7.016  0.00  0.00    -0.246 OA
ATOM     52  OD1 ASP A   5      15.672   4.256   5.099  0.00  0.00    -0.246 OA
ENDBRANCH  49  50
ENDBRANCH  29  49
ENDBRANCH   2  29
TORSDOF 18
REMARK  Name = ../refined-set-2016/6rnt/6rnt_pocket.pdb
REMARK  108 active torsions:
REMARK  status: ('A' for Active; 'I' for Inactive)
REMARK    1  A    between atoms: _1  and  _3
REMARK    2  A    between atoms: _3  and  _4
REMARK    3  A    between atoms: _3  and  _6
REMARK    4  A    between atoms: _6  and  _7
REMARK    5  A    between atoms: _9  and  _11
REMARK    6  A    between atoms: _11  and  _12
REMARK    7  A    between atoms: _11  and  _14
REMARK    8  A    between atoms: _14  and  _15
REMARK    9  A    between atoms: _20  and  _22
REMARK   10  A    between atoms: _22  and  _23
REMARK   11  A    between atoms: _22  and  _25
REMARK   12  A    between atoms: _25  and  _26
REMARK   13  A    between atoms: _28  and  _30
REMARK   14  A    between atoms: _30  and  _31
REMARK   15  A    between atoms: _30  and  _33
REMARK   16  A    between atoms: _33  and  _34
REMARK   17  A    between atoms: _39  and  _40
REMARK   18  A    between atoms: _42  and  _44
REMARK   19  A    between atoms: _44  and  _45
REMARK   20  A    between atoms: _44  and  _47
REMARK   21  A    between atoms: _47  and  _48
REMARK   22  A    between atoms: _53  and  _55
REMARK   23  A    between atoms: _55  and  _56
REMARK   24  A    between atoms: _55  and  _58
REMARK   25  A    between atoms: _58  and  _59
REMARK   26  A    between atoms: _59  and  _60
REMARK   27  A    between atoms: _60  and  _61
REMARK   28  A    between atoms: _61  and  _62
REMARK   29  A    between atoms: _66  and  _68
REMARK   30  A    between atoms: _68  and  _69
REMARK   31  A    between atoms: _68  and  _71
REMARK   32  A    between atoms: _71  and  _72
REMARK   33  A    between atoms: _77  and  _78
REMARK   34  A    between atoms: _80  and  _82
REMARK   35  A    between atoms: _82  and  _83
REMARK   36  A    between atoms: _82  and  _85
REMARK   37  A    between atoms: _85  and  _86
REMARK   38  A    between atoms: _91  and  _93
REMARK   39  A    between atoms: _93  and  _94
REMARK   40  A    between atoms: _93  and  _96
REMARK   41  A    between atoms: _96  and  _97
REMARK   42  A    between atoms: _102  and  _103
REMARK   43  A    between atoms: _105  and  _107
REMARK   44  A    between atoms: _107  and  _108
REMARK   45  A    between atoms: _107  and  _110
REMARK   46  A    between atoms: _110  and  _111
REMARK   47  A    between atoms: _111  and  _112
REMARK   48  A    between atoms: _115  and  _117
REMARK   49  A    between atoms: _117  and  _118
REMARK   50  A    between atoms: _117  and  _120
REMARK   51  A    between atoms: _120  and  _121
REMARK   52  A    between atoms: _132  and  _133
REMARK   53  A    between atoms: _138  and  _140
REMARK   54  A    between atoms: _140  and  _141
REMARK   55  A    between atoms: _140  and  _143
REMARK   56  A    between atoms: _143  and  _144
REMARK   57  A    between atoms: _147  and  _148
REMARK   58  A    between atoms: _153  and  _155
REMARK   59  A    between atoms: _155  and  _156
REMARK   60  A    between atoms: _158  and  _160
REMARK   61  A    between atoms: _160  and  _161
REMARK   62  A    between atoms: _164  and  _166
REMARK   63  A    between atoms: _166  and  _167
REMARK   64  A    between atoms: _166  and  _169
REMARK   65  A    between atoms: _169  and  _170
REMARK   66  A    between atoms: _173  and  _175
REMARK   67  A    between atoms: _175  and  _176
REMARK   68  A    between atoms: _175  and  _178
REMARK   69  A    between atoms: _178  and  _179
REMARK   70  A    between atoms: _180  and  _181
REMARK   71  A    between atoms: _190  and  _192
REMARK   72  A    between atoms: _192  and  _193
REMARK   73  A    between atoms: _192  and  _195
REMARK   74  A    between atoms: _195  and  _196
REMARK   75  A    between atoms: _199  and  _201
REMARK   76  A    between atoms: _201  and  _202
REMARK   77  A    between atoms: _201  and  _204
REMARK   78  A    between atoms: _204  and  _205
REMARK   79  A    between atoms: _208  and  _210
REMARK   80  A    between atoms: _210  and  _211
REMARK   81  A    between atoms: _210  and  _213
REMARK   82  A    between atoms: _213  and  _214
REMARK   83  A    between atoms: _219  and  _221
REMARK   84  A    between atoms: _221  and  _222
REMARK   85  A    between atoms: _221  and  _224
REMARK   86  A    between atoms: _224  and  _225
REMARK   87  A    between atoms: _228  and  _230
REMARK   88  A    between atoms: _230  and  _231
REMARK   89  A    between atoms: _233  and  _235
REMARK   90  A    between atoms: _235  and  _236
REMARK   91  A    between atoms: _239  and  _241
REMARK   92  A    between atoms: _241  and  _242
REMARK   93  A    between atoms: _241  and  _244
REMARK   94  A    between atoms: _244  and  _245
REMARK   95  A    between atoms: _247  and  _249
REMARK   96  A    between atoms: _249  and  _250
REMARK   97  A    between atoms: _252  and  _254
REMARK   98  A    between atoms: _254  and  _255
REMARK   99  A    between atoms: _254  and  _257
REMARK  100  A    between atoms: _257  and  _258
REMARK  101  A    between atoms: _263  and  _265
REMARK  102  A    between atoms: _265  and  _266
REMARK  103  A    between atoms: _265  and  _268
REMARK  104  A    between atoms: _268  and  _269
REMARK  105  A    between atoms: _274  and  _276
REMARK  106  A    between atoms: _276  and  _277
REMARK  107  A    between atoms: _276  and  _279
REMARK  108  A    between atoms: _279  and  _280
REMARK                            x       y       z     vdW  Elec       q    Type
REMARK                         _______ _______ _______ _____ _____    ______ ____
ROOT
ATOM      1  C   ALA A   6      14.115   6.022  -5.848  0.00  0.00    +0.241 C 
ATOM      2  O   ALA A   6      15.241   5.658  -5.519  0.00  0.00    -0.273 OA
ATOM      3  N   SER A   7      13.786   6.605  -7.008  0.00  0.00    -0.295 N 
ATOM      4  H   SER A   7      12.816   6.916  -7.219  0.00  0.00    +0.150 HD
ENDROOT
BRANCH   1   5
ATOM      5  CA  ALA A   6      12.897   5.842  -4.904  0.00  0.00    +0.149 C 
ATOM      6  CB  ALA A   6      12.797   7.088  -4.090  0.00  0.00    +0.031 C 
BRANCH   5   8
ATOM      7  C   GLY A   5      12.437   3.528  -4.166  0.00  0.00    +0.243 C 
ATOM      8  N   ALA A   6      13.169   4.604  -4.241  0.00  0.00    -0.297 N 
ATOM      9  H   ALA A   6      14.083   4.555  -3.747  0.00  0.00    +0.150 HD
ATOM     10  O   GLY A   5      11.364   3.564  -4.770  0.00  0.00    -0.273 OA
BRANCH   7  11
ATOM     11  CA  GLY A   5      12.825   2.252  -3.443  0.00  0.00    +0.176 C 
BRANCH  11  14
ATOM     12  C   THR A   4      13.797   3.102  -1.345  0.00  0.00    +0.243 C 
ATOM     13  O   THR A   4      12.689   3.456  -0.933  0.00  0.00    -0.273 OA
ATOM     14  N   GLY A   5      14.019   2.446  -2.551  0.00  0.00    -0.295 N 
ATOM     15  H   GLY A   5      14.964   2.107  -2.822  0.00  0.00    +0.150 HD
BRANCH  12  16
ATOM     16  CA  THR A   4      15.075   3.241  -0.538  0.00  0.00    +0.176 C 
BRANCH  16  18
ATOM     17  C   HIS A   3      15.370   5.639  -1.000  0.00  0.00    +0.241 C 
ATOM     18  N   THR A   4      15.264   4.664  -0.127  0.00  0.00    -0.295 N 
ATOM     19  H   THR A   4      15.313   4.891   0.887  0.00  0.00    +0.150 HD
ATOM     20  O   HIS A   3      15.311   5.402  -2.244  0.00  0.00    -0.273 OA
BRANCH  17  21
ATOM     21  CA  HIS A   3      15.579   7.071  -0.474  0.00  0.00    +0.155 C 
BRANCH  21  23
ATOM     22  C   THR A   2      13.933   7.192   1.225  0.00  0.00    +0.243 C 
ATOM     23  N   HIS A   3      15.185   7.099   0.957  0.00  0.00    -0.297 N 
ATOM     24  H   HIS A   3      15.896   7.045   1.714  0.00  0.00    +0.150 HD
ATOM     25  O   THR A   2      12.952   7.365   0.468  0.00  0.00    -0.273 OA
BRANCH  22  26
ATOM     26  CA  THR A   2      13.605   7.132   2.763  0.00  0.00    +0.176 C 
BRANCH  26  29
ATOM     27  C   ILE A   1      12.301   8.333   4.420  0.00  0.00    +0.238 C 
ATOM     28  O   ILE A   1      13.255   8.243   5.235  0.00  0.00    -0.274 OA
ATOM     29  N   THR A   2      12.394   7.816   3.157  0.00  0.00    -0.295 N 
ATOM     30  H   THR A   2      11.603   7.914   2.489  0.00  0.00    +0.150 HD
BRANCH  27  31
ATOM     31  CA  ILE A   1      11.021   9.032   4.697  0.00  0.00    +0.145 C 
BRANCH  31  32
ATOM     32  N   ILE A   1      11.047   9.356   6.161  0.00  0.00    -0.238 NA
ATOM     33  H   ILE A   1      11.838   9.858   6.613  0.00  0.00    +0.142 HD
ENDBRANCH  31  32
BRANCH  31  34
ATOM     34  CB  ILE A   1      10.902  10.436   3.926  0.00  0.00    +0.025 C 
ATOM     35  CG2 ILE A   1       9.594  11.114   4.302  0.00  0.00    +0.002 C 
BRANCH  34  36
ATOM     36  CG1 ILE A   1      12.220  11.275   4.284  0.00  0.00    +0.002 C 
ATOM     37  CD1 ILE A   1      12.245  12.728   3.642  0.00  0.00    +0.000 C 
ENDBRANCH  34  36
ENDBRANCH  31  34
ENDBRANCH  27  31
ENDBRANCH  26  29
BRANCH  26  38
ATOM     38  CB  THR A   2      13.418   5.605   3.103  0.00  0.00    +0.137 C 
ATOM     39  CG2 THR A   2      12.297   4.912   2.368  0.00  0.00    +0.034 C 
BRANCH  38  40
ATOM     40  OG1 THR A   2      14.623   4.864   2.766  0.00  0.00    -0.382 OA
ATOM     41  HG1 THR A   2      15.385   5.221   3.287  0.00  0.00    +0.210 HD
ENDBRANCH  38  40
ENDBRANCH  26  38
ENDBRANCH  22  26
ENDBRANCH  21  23
BRANCH  21  42
ATOM     42  CB  HIS A   3      17.025   7.410  -0.498  0.00  0.00    +0.076 C 
BRANCH  42  43
ATOM     43  CG  HIS A   3      17.331   8.902  -0.353  0.00  0.00    +0.082 A 
ATOM     44  CD2 HIS A   3      18.258   9.352   0.565  0.00  0.00    +0.115 A 
ATOM     45  NE2 HIS A   3      18.352  10.661   0.390  0.00  0.00    -0.221 NA
ATOM     46  CE1 HIS A   3      17.563  10.992  -0.608  0.00  0.00    +0.199 A 
ATOM     47  ND1 HIS A   3      16.919   9.937  -1.057  0.00  0.00    -0.227 NA
ENDBRANCH  42  43
ENDBRANCH  21  42
ENDBRANCH  17  21
ENDBRANCH  16  18
BRANCH  16  48
ATOM     48  CB  THR A   4      15.007   2.261   0.691  0.00  0.00    +0.137 C 
ATOM     49  CG2 THR A   4      14.803   0.813   0.261  0.00  0.00    +0.034 C 
BRANCH  48  50
ATOM     50  OG1 THR A   4      16.281   2.314   1.283  0.00  0.00    -0.382 OA
ATOM     51  HG1 THR A   4      16.303   1.713   2.070  0.00  0.00    +0.210 HD
ENDBRANCH  48  50
ENDBRANCH  16  48
ENDBRANCH  12  16
ENDBRANCH  11  14
ENDBRANCH   7  11
ENDBRANCH   5   8
ENDBRANCH   1   5
BRANCH   3  52
ATOM     52  CA  SER A   7      14.900   6.775  -7.968  0.00  0.00    +0.178 C 
BRANCH  52  53
ATOM     53  C   SER A   7      15.837   7.905  -7.516  0.00  0.00    +0.243 C 
ATOM     54  O   SER A   7      15.333   8.898  -6.967  0.00  0.00    -0.273 OA
ATOM     55  N   GLY A   8      17.076   7.631  -7.814  0.00  0.00    -0.295 N 
ATOM     56  H   GLY A   8      17.346   6.739  -8.276  0.00  0.00    +0.150 HD
BRANCH  55  57
ATOM     57  CA  GLY A   8      18.075   8.659  -7.459  0.00  0.00    +0.176 C 
BRANCH  57  58
ATOM     58  C   GLY A   8      18.045   9.122  -5.966  0.00  0.00    +0.243 C 
ATOM     59  O   GLY A   8      18.095   8.276  -5.065  0.00  0.00    -0.273 OA
ATOM     60  N   ASN A   9      17.986  10.428  -5.881  0.00  0.00    -0.297 N 
ATOM     61  H   ASN A   9      17.945  11.003  -6.747  0.00  0.00    +0.150 HD
BRANCH  60  62
ATOM     62  CA  ASN A   9      17.978  11.086  -4.558  0.00  0.00    +0.158 C 
BRANCH  62  63
ATOM     63  C   ASN A   9      16.577  11.470  -4.175  0.00  0.00    +0.241 C 
ATOM     64  O   ASN A   9      16.397  12.336  -3.258  0.00  0.00    -0.273 OA
ATOM     65  N   ASN A  10      15.538  10.921  -4.772  0.00  0.00    -0.297 N 
ATOM     66  H   ASN A  10      15.715  10.236  -5.535  0.00  0.00    +0.150 HD
BRANCH  65  67
ATOM     67  CA  ASN A  10      14.156  11.220  -4.423  0.00  0.00    +0.158 C 
BRANCH  67  68
ATOM     68  C   ASN A  10      13.794  10.343  -3.117  0.00  0.00    +0.241 C 
ATOM     69  O   ASN A  10      14.729   9.626  -2.719  0.00  0.00    -0.273 OA
ATOM     70  N   PHE A  11      12.548  10.594  -2.730  0.00  0.00    -0.298 N 
ATOM     71  H   PHE A  11      11.917  11.271  -3.205  0.00  0.00    +0.150 HD
BRANCH  70  72
ATOM     72  CA  PHE A  11      12.151   9.775  -1.509  0.00  0.00    +0.141 C 
BRANCH  72  73
ATOM     73  C   PHE A  11      10.813   9.204  -1.619  0.00  0.00    +0.227 C 
ATOM     74  O   PHE A  11       9.860   9.630  -2.359  0.00  0.00    -0.286 OA
ENDBRANCH  72  73
BRANCH  72  75
ATOM     75  CB  PHE A  11      11.886  10.843  -0.391  0.00  0.00    +0.054 C 
BRANCH  75  76
ATOM     76  CG  PHE A  11      13.109  11.446   0.186  0.00  0.00    -0.020 A 
ATOM     77  CD2 PHE A  11      13.959  10.808   1.090  0.00  0.00    -0.004 A 
ATOM     78  CE2 PHE A  11      15.089  11.432   1.615  0.00  0.00    -0.000 A 
ATOM     79  CZ  PHE A  11      15.316  12.756   1.115  0.00  0.00    -0.000 A 
ATOM     80  CE1 PHE A  11      14.550  13.424   0.202  0.00  0.00    -0.000 A 
ATOM     81  CD1 PHE A  11      13.393  12.742  -0.260  0.00  0.00    -0.004 A 
ENDBRANCH  75  76
ENDBRANCH  72  75
ENDBRANCH  70  72
ENDBRANCH  67  68
BRANCH  67  82
ATOM     82  CB  ASN A  10      13.108  10.928  -5.466  0.00  0.00    +0.114 C 
BRANCH  82  83
ATOM     83  CG  ASN A  10      13.472  11.855  -6.661  0.00  0.00    +0.222 C 
ATOM     84  OD1 ASN A  10      13.399  13.097  -6.514  0.00  0.00    -0.275 OA
ATOM     85  ND2 ASN A  10      13.877  11.265  -7.783  0.00  0.00    -0.329 N 
ATOM     86 HD21 ASN A  10      13.915  10.227  -7.840  0.00  0.00    +0.145 HD
ATOM     87 HD22 ASN A  10      14.156  11.842  -8.602  0.00  0.00    +0.145 HD
ENDBRANCH  82  83
ENDBRANCH  67  82
ENDBRANCH  65  67
ENDBRANCH  62  63
BRANCH  62  88
ATOM     88  CB  ASN A   9      19.075  12.171  -4.551  0.00  0.00    +0.114 C 
BRANCH  88  89
ATOM     89  CG  ASN A   9      18.703  13.292  -5.532  0.00  0.00    +0.222 C 
ATOM     90  ND2 ASN A   9      19.752  14.113  -5.703  0.00  0.00    -0.329 N 
ATOM     91 HD21 ASN A   9      20.645  13.927  -5.203  0.00  0.00    +0.145 HD
ATOM     92 HD22 ASN A   9      19.672  14.935  -6.335  0.00  0.00    +0.145 HD
ATOM     93  OD1 ASN A   9      17.600  13.477  -6.117  0.00  0.00    -0.275 OA
ENDBRANCH  88  89
ENDBRANCH  62  88
ENDBRANCH  60  62
ENDBRANCH  57  58
ENDBRANCH  55  57
ENDBRANCH  52  53
BRANCH  52  94
ATOM     94  CB  SER A   7      14.715   7.108  -9.454  0.00  0.00    +0.166 C 
BRANCH  94  95
ATOM     95  OG  SER A   7      13.650   7.987  -9.608  0.00  0.00    -0.380 OA
ATOM     96  H   SER A   7      13.535   8.199 -10.568  0.00  0.00    +0.211 HD
ENDBRANCH  94  95
ENDBRANCH  52  94
ENDBRANCH   3  52
TORSDOF 38
REMARK  Name = ../refined-set-2016/6rnt/6rnt_pocket.pdb
REMARK  108 active torsions:
REMARK  status: ('A' for Active; 'I' for Inactive)
REMARK    1  A    between atoms: _1  and  _3
REMARK    2  A    between atoms: _3  and  _4
REMARK    3  A    between atoms: _3  and  _6
REMARK    4  A    between atoms: _6  and  _7
REMARK    5  A    between atoms: _9  and  _11
REMARK    6  A    between atoms: _11  and  _12
REMARK    7  A    between atoms: _11  and  _14
REMARK    8  A    between atoms: _14  and  _15
REMARK    9  A    between atoms: _20  and  _22
REMARK   10  A    between atoms: _22  and  _23
REMARK   11  A    between atoms: _22  and  _25
REMARK   12  A    between atoms: _25  and  _26
REMARK   13  A    between atoms: _28  and  _30
REMARK   14  A    between atoms: _30  and  _31
REMARK   15  A    between atoms: _30  and  _33
REMARK   16  A    between atoms: _33  and  _34
REMARK   17  A    between atoms: _39  and  _40
REMARK   18  A    between atoms: _42  and  _44
REMARK   19  A    between atoms: _44  and  _45
REMARK   20  A    between atoms: _44  and  _47
REMARK   21  A    between atoms: _47  and  _48
REMARK   22  A    between atoms: _53  and  _55
REMARK   23  A    between atoms: _55  and  _56
REMARK   24  A    between atoms: _55  and  _58
REMARK   25  A    between atoms: _58  and  _59
REMARK   26  A    between atoms: _59  and  _60
REMARK   27  A    between atoms: _60  and  _61
REMARK   28  A    between atoms: _61  and  _62
REMARK   29  A    between atoms: _66  and  _68
REMARK   30  A    between atoms: _68  and  _69
REMARK   31  A    between atoms: _68  and  _71
REMARK   32  A    between atoms: _71  and  _72
REMARK   33  A    between atoms: _77  and  _78
REMARK   34  A    between atoms: _80  and  _82
REMARK   35  A    between atoms: _82  and  _83
REMARK   36  A    between atoms: _82  and  _85
REMARK   37  A    between atoms: _85  and  _86
REMARK   38  A    between atoms: _91  and  _93
REMARK   39  A    between atoms: _93  and  _94
REMARK   40  A    between atoms: _93  and  _96
REMARK   41  A    between atoms: _96  and  _97
REMARK   42  A    between atoms: _102  and  _103
REMARK   43  A    between atoms: _105  and  _107
REMARK   44  A    between atoms: _107  and  _108
REMARK   45  A    between atoms: _107  and  _110
REMARK   46  A    between atoms: _110  and  _111
REMARK   47  A    between atoms: _111  and  _112
REMARK   48  A    between atoms: _115  and  _117
REMARK   49  A    between atoms: _117  and  _118
REMARK   50  A    between atoms: _117  and  _120
REMARK   51  A    between atoms: _120  and  _121
REMARK   52  A    between atoms: _132  and  _133
REMARK   53  A    between atoms: _138  and  _140
REMARK   54  A    between atoms: _140  and  _141
REMARK   55  A    between atoms: _140  and  _143
REMARK   56  A    between atoms: _143  and  _144
REMARK   57  A    between atoms: _147  and  _148
REMARK   58  A    between atoms: _153  and  _155
REMARK   59  A    between atoms: _155  and  _156
REMARK   60  A    between atoms: _158  and  _160
REMARK   61  A    between atoms: _160  and  _161
REMARK   62  A    between atoms: _164  and  _166
REMARK   63  A    between atoms: _166  and  _167
REMARK   64  A    between atoms: _166  and  _169
REMARK   65  A    between atoms: _169  and  _170
REMARK   66  A    between atoms: _173  and  _175
REMARK   67  A    between atoms: _175  and  _176
REMARK   68  A    between atoms: _175  and  _178
REMARK   69  A    between atoms: _178  and  _179
REMARK   70  A    between atoms: _180  and  _181
REMARK   71  A    between atoms: _190  and  _192
REMARK   72  A    between atoms: _192  and  _193
REMARK   73  A    between atoms: _192  and  _195
REMARK   74  A    between atoms: _195  and  _196
REMARK   75  A    between atoms: _199  and  _201
REMARK   76  A    between atoms: _201  and  _202
REMARK   77  A    between atoms: _201  and  _204
REMARK   78  A    between atoms: _204  and  _205
REMARK   79  A    between atoms: _208  and  _210
REMARK   80  A    between atoms: _210  and  _211
REMARK   81  A    between atoms: _210  and  _213
REMARK   82  A    between atoms: _213  and  _214
REMARK   83  A    between atoms: _219  and  _221
REMARK   84  A    between atoms: _221  and  _222
REMARK   85  A    between atoms: _221  and  _224
REMARK   86  A    between atoms: _224  and  _225
REMARK   87  A    between atoms: _228  and  _230
REMARK   88  A    between atoms: _230  and  _231
REMARK   89  A    between atoms: _233  and  _235
REMARK   90  A    between atoms: _235  and  _236
REMARK   91  A    between atoms: _239  and  _241
REMARK   92  A    between atoms: _241  and  _242
REMARK   93  A    between atoms: _241  and  _244
REMARK   94  A    between atoms: _244  and  _245
REMARK   95  A    between atoms: _247  and  _249
REMARK   96  A    between atoms: _249  and  _250
REMARK   97  A    between atoms: _252  and  _254
REMARK   98  A    between atoms: _254  and  _255
REMARK   99  A    between atoms: _254  and  _257
REMARK  100  A    between atoms: _257  and  _258
REMARK  101  A    between atoms: _263  and  _265
REMARK  102  A    between atoms: _265  and  _266
REMARK  103  A    between atoms: _265  and  _268
REMARK  104  A    between atoms: _268  and  _269
REMARK  105  A    between atoms: _274  and  _276
REMARK  106  A    between atoms: _276  and  _277
REMARK  107  A    between atoms: _276  and  _279
REMARK  108  A    between atoms: _279  and  _280
REMARK                            x       y       z     vdW  Elec       q    Type
REMARK                         _______ _______ _______ _____ _____    ______ ____
ROOT
ATOM      1  O   HOH     1      14.407  18.182  -0.325  0.00  0.00    +0.000 OA
ENDROOT
TORSDOF 0
REMARK  Name = ../refined-set-2016/6rnt/6rnt_pocket.pdb
REMARK  108 active torsions:
REMARK  status: ('A' for Active; 'I' for Inactive)
REMARK    1  A    between atoms: _1  and  _3
REMARK    2  A    between atoms: _3  and  _4
REMARK    3  A    between atoms: _3  and  _6
REMARK    4  A    between atoms: _6  and  _7
REMARK    5  A    between atoms: _9  and  _11
REMARK    6  A    between atoms: _11  and  _12
REMARK    7  A    between atoms: _11  and  _14
REMARK    8  A    between atoms: _14  and  _15
REMARK    9  A    between atoms: _20  and  _22
REMARK   10  A    between atoms: _22  and  _23
REMARK   11  A    between atoms: _22  and  _25
REMARK   12  A    between atoms: _25  and  _26
REMARK   13  A    between atoms: _28  and  _30
REMARK   14  A    between atoms: _30  and  _31
REMARK   15  A    between atoms: _30  and  _33
REMARK   16  A    between atoms: _33  and  _34
REMARK   17  A    between atoms: _39  and  _40
REMARK   18  A    between atoms: _42  and  _44
REMARK   19  A    between atoms: _44  and  _45
REMARK   20  A    between atoms: _44  and  _47
REMARK   21  A    between atoms: _47  and  _48
REMARK   22  A    between atoms: _53  and  _55
REMARK   23  A    between atoms: _55  and  _56
REMARK   24  A    between atoms: _55  and  _58
REMARK   25  A    between atoms: _58  and  _59
REMARK   26  A    between atoms: _59  and  _60
REMARK   27  A    between atoms: _60  and  _61
REMARK   28  A    between atoms: _61  and  _62
REMARK   29  A    between atoms: _66  and  _68
REMARK   30  A    between atoms: _68  and  _69
REMARK   31  A    between atoms: _68  and  _71
REMARK   32  A    between atoms: _71  and  _72
REMARK   33  A    between atoms: _77  and  _78
REMARK   34  A    between atoms: _80  and  _82
REMARK   35  A    between atoms: _82  and  _83
REMARK   36  A    between atoms: _82  and  _85
REMARK   37  A    between atoms: _85  and  _86
REMARK   38  A    between atoms: _91  and  _93
REMARK   39  A    between atoms: _93  and  _94
REMARK   40  A    between atoms: _93  and  _96
REMARK   41  A    between atoms: _96  and  _97
REMARK   42  A    between atoms: _102  and  _103
REMARK   43  A    between atoms: _105  and  _107
REMARK   44  A    between atoms: _107  and  _108
REMARK   45  A    between atoms: _107  and  _110
REMARK   46  A    between atoms: _110  and  _111
REMARK   47  A    between atoms: _111  and  _112
REMARK   48  A    between atoms: _115  and  _117
REMARK   49  A    between atoms: _117  and  _118
REMARK   50  A    between atoms: _117  and  _120
REMARK   51  A    between atoms: _120  and  _121
REMARK   52  A    between atoms: _132  and  _133
REMARK   53  A    between atoms: _138  and  _140
REMARK   54  A    between atoms: _140  and  _141
REMARK   55  A    between atoms: _140  and  _143
REMARK   56  A    between atoms: _143  and  _144
REMARK   57  A    between atoms: _147  and  _148
REMARK   58  A    between atoms: _153  and  _155
REMARK   59  A    between atoms: _155  and  _156
REMARK   60  A    between atoms: _158  and  _160
REMARK   61  A    between atoms: _160  and  _161
REMARK   62  A    between atoms: _164  and  _166
REMARK   63  A    between atoms: _166  and  _167
REMARK   64  A    between atoms: _166  and  _169
REMARK   65  A    between atoms: _169  and  _170
REMARK   66  A    between atoms: _173  and  _175
REMARK   67  A    between atoms: _175  and  _176
REMARK   68  A    between atoms: _175  and  _178
REMARK   69  A    between atoms: _178  and  _179
REMARK   70  A    between atoms: _180  and  _181
REMARK   71  A    between atoms: _190  and  _192
REMARK   72  A    between atoms: _192  and  _193
REMARK   73  A    between atoms: _192  and  _195
REMARK   74  A    between atoms: _195  and  _196
REMARK   75  A    between atoms: _199  and  _201
REMARK   76  A    between atoms: _201  and  _202
REMARK   77  A    between atoms: _201  and  _204
REMARK   78  A    between atoms: _204  and  _205
REMARK   79  A    between atoms: _208  and  _210
REMARK   80  A    between atoms: _210  and  _211
REMARK   81  A    between atoms: _210  and  _213
REMARK   82  A    between atoms: _213  and  _214
REMARK   83  A    between atoms: _219  and  _221
REMARK   84  A    between atoms: _221  and  _222
REMARK   85  A    between atoms: _221  and  _224
REMARK   86  A    between atoms: _224  and  _225
REMARK   87  A    between atoms: _228  and  _230
REMARK   88  A    between atoms: _230  and  _231
REMARK   89  A    between atoms: _233  and  _235
REMARK   90  A    between atoms: _235  and  _236
REMARK   91  A    between atoms: _239  and  _241
REMARK   92  A    between atoms: _241  and  _242
REMARK   93  A    between atoms: _241  and  _244
REMARK   94  A    between atoms: _244  and  _245
REMARK   95  A    between atoms: _247  and  _249
REMARK   96  A    between atoms: _249  and  _250
REMARK   97  A    between atoms: _252  and  _254
REMARK   98  A    between atoms: _254  and  _255
REMARK   99  A    between atoms: _254  and  _257
REMARK  100  A    between atoms: _257  and  _258
REMARK  101  A    between atoms: _263  and  _265
REMARK  102  A    between atoms: _265  and  _266
REMARK  103  A    between atoms: _265  and  _268
REMARK  104  A    between atoms: _268  and  _269
REMARK  105  A    between atoms: _274  and  _276
REMARK  106  A    between atoms: _276  and  _277
REMARK  107  A    between atoms: _276  and  _279
REMARK  108  A    between atoms: _279  and  _280
REMARK                            x       y       z     vdW  Elec       q    Type
REMARK                         _______ _______ _______ _____ _____    ______ ____
ROOT
ATOM      1  O   HOH     1      15.801  15.116  -2.559  0.00  0.00    +0.000 OA
ENDROOT
TORSDOF 0
REMARK  Name = ../refined-set-2016/6rnt/6rnt_pocket.pdb
REMARK  108 active torsions:
REMARK  status: ('A' for Active; 'I' for Inactive)
REMARK    1  A    between atoms: _1  and  _3
REMARK    2  A    between atoms: _3  and  _4
REMARK    3  A    between atoms: _3  and  _6
REMARK    4  A    between atoms: _6  and  _7
REMARK    5  A    between atoms: _9  and  _11
REMARK    6  A    between atoms: _11  and  _12
REMARK    7  A    between atoms: _11  and  _14
REMARK    8  A    between atoms: _14  and  _15
REMARK    9  A    between atoms: _20  and  _22
REMARK   10  A    between atoms: _22  and  _23
REMARK   11  A    between atoms: _22  and  _25
REMARK   12  A    between atoms: _25  and  _26
REMARK   13  A    between atoms: _28  and  _30
REMARK   14  A    between atoms: _30  and  _31
REMARK   15  A    between atoms: _30  and  _33
REMARK   16  A    between atoms: _33  and  _34
REMARK   17  A    between atoms: _39  and  _40
REMARK   18  A    between atoms: _42  and  _44
REMARK   19  A    between atoms: _44  and  _45
REMARK   20  A    between atoms: _44  and  _47
REMARK   21  A    between atoms: _47  and  _48
REMARK   22  A    between atoms: _53  and  _55
REMARK   23  A    between atoms: _55  and  _56
REMARK   24  A    between atoms: _55  and  _58
REMARK   25  A    between atoms: _58  and  _59
REMARK   26  A    between atoms: _59  and  _60
REMARK   27  A    between atoms: _60  and  _61
REMARK   28  A    between atoms: _61  and  _62
REMARK   29  A    between atoms: _66  and  _68
REMARK   30  A    between atoms: _68  and  _69
REMARK   31  A    between atoms: _68  and  _71
REMARK   32  A    between atoms: _71  and  _72
REMARK   33  A    between atoms: _77  and  _78
REMARK   34  A    between atoms: _80  and  _82
REMARK   35  A    between atoms: _82  and  _83
REMARK   36  A    between atoms: _82  and  _85
REMARK   37  A    between atoms: _85  and  _86
REMARK   38  A    between atoms: _91  and  _93
REMARK   39  A    between atoms: _93  and  _94
REMARK   40  A    between atoms: _93  and  _96
REMARK   41  A    between atoms: _96  and  _97
REMARK   42  A    between atoms: _102  and  _103
REMARK   43  A    between atoms: _105  and  _107
REMARK   44  A    between atoms: _107  and  _108
REMARK   45  A    between atoms: _107  and  _110
REMARK   46  A    between atoms: _110  and  _111
REMARK   47  A    between atoms: _111  and  _112
REMARK   48  A    between atoms: _115  and  _117
REMARK   49  A    between atoms: _117  and  _118
REMARK   50  A    between atoms: _117  and  _120
REMARK   51  A    between atoms: _120  and  _121
REMARK   52  A    between atoms: _132  and  _133
REMARK   53  A    between atoms: _138  and  _140
REMARK   54  A    between atoms: _140  and  _141
REMARK   55  A    between atoms: _140  and  _143
REMARK   56  A    between atoms: _143  and  _144
REMARK   57  A    between atoms: _147  and  _148
REMARK   58  A    between atoms: _153  and  _155
REMARK   59  A    between atoms: _155  and  _156
REMARK   60  A    between atoms: _158  and  _160
REMARK   61  A    between atoms: _160  and  _161
REMARK   62  A    between atoms: _164  and  _166
REMARK   63  A    between atoms: _166  and  _167
REMARK   64  A    between atoms: _166  and  _169
REMARK   65  A    between atoms: _169  and  _170
REMARK   66  A    between atoms: _173  and  _175
REMARK   67  A    between atoms: _175  and  _176
REMARK   68  A    between atoms: _175  and  _178
REMARK   69  A    between atoms: _178  and  _179
REMARK   70  A    between atoms: _180  and  _181
REMARK   71  A    between atoms: _190  and  _192
REMARK   72  A    between atoms: _192  and  _193
REMARK   73  A    between atoms: _192  and  _195
REMARK   74  A    between atoms: _195  and  _196
REMARK   75  A    between atoms: _199  and  _201
REMARK   76  A    between atoms: _201  and  _202
REMARK   77  A    between atoms: _201  and  _204
REMARK   78  A    between atoms: _204  and  _205
REMARK   79  A    between atoms: _208  and  _210
REMARK   80  A    between atoms: _210  and  _211
REMARK   81  A    between atoms: _210  and  _213
REMARK   82  A    between atoms: _213  and  _214
REMARK   83  A    between atoms: _219  and  _221
REMARK   84  A    between atoms: _221  and  _222
REMARK   85  A    between atoms: _221  and  _224
REMARK   86  A    between atoms: _224  and  _225
REMARK   87  A    between atoms: _228  and  _230
REMARK   88  A    between atoms: _230  and  _231
REMARK   89  A    between atoms: _233  and  _235
REMARK   90  A    between atoms: _235  and  _236
REMARK   91  A    between atoms: _239  and  _241
REMARK   92  A    between atoms: _241  and  _242
REMARK   93  A    between atoms: _241  and  _244
REMARK   94  A    between atoms: _244  and  _245
REMARK   95  A    between atoms: _247  and  _249
REMARK   96  A    between atoms: _249  and  _250
REMARK   97  A    between atoms: _252  and  _254
REMARK   98  A    between atoms: _254  and  _255
REMARK   99  A    between atoms: _254  and  _257
REMARK  100  A    between atoms: _257  and  _258
REMARK  101  A    between atoms: _263  and  _265
REMARK  102  A    between atoms: _265  and  _266
REMARK  103  A    between atoms: _265  and  _268
REMARK  104  A    between atoms: _268  and  _269
REMARK  105  A    between atoms: _274  and  _276
REMARK  106  A    between atoms: _276  and  _277
REMARK  107  A    between atoms: _276  and  _279
REMARK  108  A    between atoms: _279  and  _280
REMARK                            x       y       z     vdW  Elec       q    Type
REMARK                         _______ _______ _______ _____ _____    ______ ____
ROOT
ATOM      1  O   HOH     1      16.215   1.988   4.009  0.00  0.00    +0.000 OA
ENDROOT
TORSDOF 0
REMARK  Name = ../refined-set-2016/6rnt/6rnt_pocket.pdb
REMARK  108 active torsions:
REMARK  status: ('A' for Active; 'I' for Inactive)
REMARK    1  A    between atoms: _1  and  _3
REMARK    2  A    between atoms: _3  and  _4
REMARK    3  A    between atoms: _3  and  _6
REMARK    4  A    between atoms: _6  and  _7
REMARK    5  A    between atoms: _9  and  _11
REMARK    6  A    between atoms: _11  and  _12
REMARK    7  A    between atoms: _11  and  _14
REMARK    8  A    between atoms: _14  and  _15
REMARK    9  A    between atoms: _20  and  _22
REMARK   10  A    between atoms: _22  and  _23
REMARK   11  A    between atoms: _22  and  _25
REMARK   12  A    between atoms: _25  and  _26
REMARK   13  A    between atoms: _28  and  _30
REMARK   14  A    between atoms: _30  and  _31
REMARK   15  A    between atoms: _30  and  _33
REMARK   16  A    between atoms: _33  and  _34
REMARK   17  A    between atoms: _39  and  _40
REMARK   18  A    between atoms: _42  and  _44
REMARK   19  A    between atoms: _44  and  _45
REMARK   20  A    between atoms: _44  and  _47
REMARK   21  A    between atoms: _47  and  _48
REMARK   22  A    between atoms: _53  and  _55
REMARK   23  A    between atoms: _55  and  _56
REMARK   24  A    between atoms: _55  and  _58
REMARK   25  A    between atoms: _58  and  _59
REMARK   26  A    between atoms: _59  and  _60
REMARK   27  A    between atoms: _60  and  _61
REMARK   28  A    between atoms: _61  and  _62
REMARK   29  A    between atoms: _66  and  _68
REMARK   30  A    between atoms: _68  and  _69
REMARK   31  A    between atoms: _68  and  _71
REMARK   32  A    between atoms: _71  and  _72
REMARK   33  A    between atoms: _77  and  _78
REMARK   34  A    between atoms: _80  and  _82
REMARK   35  A    between atoms: _82  and  _83
REMARK   36  A    between atoms: _82  and  _85
REMARK   37  A    between atoms: _85  and  _86
REMARK   38  A    between atoms: _91  and  _93
REMARK   39  A    between atoms: _93  and  _94
REMARK   40  A    between atoms: _93  and  _96
REMARK   41  A    between atoms: _96  and  _97
REMARK   42  A    between atoms: _102  and  _103
REMARK   43  A    between atoms: _105  and  _107
REMARK   44  A    between atoms: _107  and  _108
REMARK   45  A    between atoms: _107  and  _110
REMARK   46  A    between atoms: _110  and  _111
REMARK   47  A    between atoms: _111  and  _112
REMARK   48  A    between atoms: _115  and  _117
REMARK   49  A    between atoms: _117  and  _118
REMARK   50  A    between atoms: _117  and  _120
REMARK   51  A    between atoms: _120  and  _121
REMARK   52  A    between atoms: _132  and  _133
REMARK   53  A    between atoms: _138  and  _140
REMARK   54  A    between atoms: _140  and  _141
REMARK   55  A    between atoms: _140  and  _143
REMARK   56  A    between atoms: _143  and  _144
REMARK   57  A    between atoms: _147  and  _148
REMARK   58  A    between atoms: _153  and  _155
REMARK   59  A    between atoms: _155  and  _156
REMARK   60  A    between atoms: _158  and  _160
REMARK   61  A    between atoms: _160  and  _161
REMARK   62  A    between atoms: _164  and  _166
REMARK   63  A    between atoms: _166  and  _167
REMARK   64  A    between atoms: _166  and  _169
REMARK   65  A    between atoms: _169  and  _170
REMARK   66  A    between atoms: _173  and  _175
REMARK   67  A    between atoms: _175  and  _176
REMARK   68  A    between atoms: _175  and  _178
REMARK   69  A    between atoms: _178  and  _179
REMARK   70  A    between atoms: _180  and  _181
REMARK   71  A    between atoms: _190  and  _192
REMARK   72  A    between atoms: _192  and  _193
REMARK   73  A    between atoms: _192  and  _195
REMARK   74  A    between atoms: _195  and  _196
REMARK   75  A    between atoms: _199  and  _201
REMARK   76  A    between atoms: _201  and  _202
REMARK   77  A    between atoms: _201  and  _204
REMARK   78  A    between atoms: _204  and  _205
REMARK   79  A    between atoms: _208  and  _210
REMARK   80  A    between atoms: _210  and  _211
REMARK   81  A    between atoms: _210  and  _213
REMARK   82  A    between atoms: _213  and  _214
REMARK   83  A    between atoms: _219  and  _221
REMARK   84  A    between atoms: _221  and  _222
REMARK   85  A    between atoms: _221  and  _224
REMARK   86  A    between atoms: _224  and  _225
REMARK   87  A    between atoms: _228  and  _230
REMARK   88  A    between atoms: _230  and  _231
REMARK   89  A    between atoms: _233  and  _235
REMARK   90  A    between atoms: _235  and  _236
REMARK   91  A    between atoms: _239  and  _241
REMARK   92  A    between atoms: _241  and  _242
REMARK   93  A    between atoms: _241  and  _244
REMARK   94  A    between atoms: _244  and  _245
REMARK   95  A    between atoms: _247  and  _249
REMARK   96  A    between atoms: _249  and  _250
REMARK   97  A    between atoms: _252  and  _254
REMARK   98  A    between atoms: _254  and  _255
REMARK   99  A    between atoms: _254  and  _257
REMARK  100  A    between atoms: _257  and  _258
REMARK  101  A    between atoms: _263  and  _265
REMARK  102  A    between atoms: _265  and  _266
REMARK  103  A    between atoms: _265  and  _268
REMARK  104  A    between atoms: _268  and  _269
REMARK  105  A    between atoms: _274  and  _276
REMARK  106  A    between atoms: _276  and  _277
REMARK  107  A    between atoms: _276  and  _279
REMARK  108  A    between atoms: _279  and  _280
REMARK                            x       y       z     vdW  Elec       q    Type
REMARK                         _______ _______ _______ _____ _____    ______ ____
ROOT
ATOM      1  O   HOH     1      16.769  17.065   0.033  0.00  0.00    +0.000 OA
ENDROOT
TORSDOF 0
REMARK  Name = ../refined-set-2016/6rnt/6rnt_pocket.pdb
REMARK  108 active torsions:
REMARK  status: ('A' for Active; 'I' for Inactive)
REMARK    1  A    between atoms: _1  and  _3
REMARK    2  A    between atoms: _3  and  _4
REMARK    3  A    between atoms: _3  and  _6
REMARK    4  A    between atoms: _6  and  _7
REMARK    5  A    between atoms: _9  and  _11
REMARK    6  A    between atoms: _11  and  _12
REMARK    7  A    between atoms: _11  and  _14
REMARK    8  A    between atoms: _14  and  _15
REMARK    9  A    between atoms: _20  and  _22
REMARK   10  A    between atoms: _22  and  _23
REMARK   11  A    between atoms: _22  and  _25
REMARK   12  A    between atoms: _25  and  _26
REMARK   13  A    between atoms: _28  and  _30
REMARK   14  A    between atoms: _30  and  _31
REMARK   15  A    between atoms: _30  and  _33
REMARK   16  A    between atoms: _33  and  _34
REMARK   17  A    between atoms: _39  and  _40
REMARK   18  A    between atoms: _42  and  _44
REMARK   19  A    between atoms: _44  and  _45
REMARK   20  A    between atoms: _44  and  _47
REMARK   21  A    between atoms: _47  and  _48
REMARK   22  A    between atoms: _53  and  _55
REMARK   23  A    between atoms: _55  and  _56
REMARK   24  A    between atoms: _55  and  _58
REMARK   25  A    between atoms: _58  and  _59
REMARK   26  A    between atoms: _59  and  _60
REMARK   27  A    between atoms: _60  and  _61
REMARK   28  A    between atoms: _61  and  _62
REMARK   29  A    between atoms: _66  and  _68
REMARK   30  A    between atoms: _68  and  _69
REMARK   31  A    between atoms: _68  and  _71
REMARK   32  A    between atoms: _71  and  _72
REMARK   33  A    between atoms: _77  and  _78
REMARK   34  A    between atoms: _80  and  _82
REMARK   35  A    between atoms: _82  and  _83
REMARK   36  A    between atoms: _82  and  _85
REMARK   37  A    between atoms: _85  and  _86
REMARK   38  A    between atoms: _91  and  _93
REMARK   39  A    between atoms: _93  and  _94
REMARK   40  A    between atoms: _93  and  _96
REMARK   41  A    between atoms: _96  and  _97
REMARK   42  A    between atoms: _102  and  _103
REMARK   43  A    between atoms: _105  and  _107
REMARK   44  A    between atoms: _107  and  _108
REMARK   45  A    between atoms: _107  and  _110
REMARK   46  A    between atoms: _110  and  _111
REMARK   47  A    between atoms: _111  and  _112
REMARK   48  A    between atoms: _115  and  _117
REMARK   49  A    between atoms: _117  and  _118
REMARK   50  A    between atoms: _117  and  _120
REMARK   51  A    between atoms: _120  and  _121
REMARK   52  A    between atoms: _132  and  _133
REMARK   53  A    between atoms: _138  and  _140
REMARK   54  A    between atoms: _140  and  _141
REMARK   55  A    between atoms: _140  and  _143
REMARK   56  A    between atoms: _143  and  _144
REMARK   57  A    between atoms: _147  and  _148
REMARK   58  A    between atoms: _153  and  _155
REMARK   59  A    between atoms: _155  and  _156
REMARK   60  A    between atoms: _158  and  _160
REMARK   61  A    between atoms: _160  and  _161
REMARK   62  A    between atoms: _164  and  _166
REMARK   63  A    between atoms: _166  and  _167
REMARK   64  A    between atoms: _166  and  _169
REMARK   65  A    between atoms: _169  and  _170
REMARK   66  A    between atoms: _173  and  _175
REMARK   67  A    between atoms: _175  and  _176
REMARK   68  A    between atoms: _175  and  _178
REMARK   69  A    between atoms: _178  and  _179
REMARK   70  A    between atoms: _180  and  _181
REMARK   71  A    between atoms: _190  and  _192
REMARK   72  A    between atoms: _192  and  _193
REMARK   73  A    between atoms: _192  and  _195
REMARK   74  A    between atoms: _195  and  _196
REMARK   75  A    between atoms: _199  and  _201
REMARK   76  A    between atoms: _201  and  _202
REMARK   77  A    between atoms: _201  and  _204
REMARK   78  A    between atoms: _204  and  _205
REMARK   79  A    between atoms: _208  and  _210
REMARK   80  A    between atoms: _210  and  _211
REMARK   81  A    between atoms: _210  and  _213
REMARK   82  A    between atoms: _213  and  _214
REMARK   83  A    between atoms: _219  and  _221
REMARK   84  A    between atoms: _221  and  _222
REMARK   85  A    between atoms: _221  and  _224
REMARK   86  A    between atoms: _224  and  _225
REMARK   87  A    between atoms: _228  and  _230
REMARK   88  A    between atoms: _230  and  _231
REMARK   89  A    between atoms: _233  and  _235
REMARK   90  A    between atoms: _235  and  _236
REMARK   91  A    between atoms: _239  and  _241
REMARK   92  A    between atoms: _241  and  _242
REMARK   93  A    between atoms: _241  and  _244
REMARK   94  A    between atoms: _244  and  _245
REMARK   95  A    between atoms: _247  and  _249
REMARK   96  A    between atoms: _249  and  _250
REMARK   97  A    between atoms: _252  and  _254
REMARK   98  A    between atoms: _254  and  _255
REMARK   99  A    between atoms: _254  and  _257
REMARK  100  A    between atoms: _257  and  _258
REMARK  101  A    between atoms: _263  and  _265
REMARK  102  A    between atoms: _265  and  _266
REMARK  103  A    between atoms: _265  and  _268
REMARK  104  A    between atoms: _268  and  _269
REMARK  105  A    between atoms: _274  and  _276
REMARK  106  A    between atoms: _276  and  _277
REMARK  107  A    between atoms: _276  and  _279
REMARK  108  A    between atoms: _279  and  _280
REMARK                            x       y       z     vdW  Elec       q    Type
REMARK                         _______ _______ _______ _____ _____    ______ ____
ROOT
ATOM      1  O   HOH     1      18.298  15.444  -1.356  0.00  0.00    +0.000 OA
ENDROOT
TORSDOF 0
REMARK  Name = ../refined-set-2016/6rnt/6rnt_pocket.pdb
REMARK  108 active torsions:
REMARK  status: ('A' for Active; 'I' for Inactive)
REMARK    1  A    between atoms: _1  and  _3
REMARK    2  A    between atoms: _3  and  _4
REMARK    3  A    between atoms: _3  and  _6
REMARK    4  A    between atoms: _6  and  _7
REMARK    5  A    between atoms: _9  and  _11
REMARK    6  A    between atoms: _11  and  _12
REMARK    7  A    between atoms: _11  and  _14
REMARK    8  A    between atoms: _14  and  _15
REMARK    9  A    between atoms: _20  and  _22
REMARK   10  A    between atoms: _22  and  _23
REMARK   11  A    between atoms: _22  and  _25
REMARK   12  A    between atoms: _25  and  _26
REMARK   13  A    between atoms: _28  and  _30
REMARK   14  A    between atoms: _30  and  _31
REMARK   15  A    between atoms: _30  and  _33
REMARK   16  A    between atoms: _33  and  _34
REMARK   17  A    between atoms: _39  and  _40
REMARK   18  A    between atoms: _42  and  _44
REMARK   19  A    between atoms: _44  and  _45
REMARK   20  A    between atoms: _44  and  _47
REMARK   21  A    between atoms: _47  and  _48
REMARK   22  A    between atoms: _53  and  _55
REMARK   23  A    between atoms: _55  and  _56
REMARK   24  A    between atoms: _55  and  _58
REMARK   25  A    between atoms: _58  and  _59
REMARK   26  A    between atoms: _59  and  _60
REMARK   27  A    between atoms: _60  and  _61
REMARK   28  A    between atoms: _61  and  _62
REMARK   29  A    between atoms: _66  and  _68
REMARK   30  A    between atoms: _68  and  _69
REMARK   31  A    between atoms: _68  and  _71
REMARK   32  A    between atoms: _71  and  _72
REMARK   33  A    between atoms: _77  and  _78
REMARK   34  A    between atoms: _80  and  _82
REMARK   35  A    between atoms: _82  and  _83
REMARK   36  A    between atoms: _82  and  _85
REMARK   37  A    between atoms: _85  and  _86
REMARK   38  A    between atoms: _91  and  _93
REMARK   39  A    between atoms: _93  and  _94
REMARK   40  A    between atoms: _93  and  _96
REMARK   41  A    between atoms: _96  and  _97
REMARK   42  A    between atoms: _102  and  _103
REMARK   43  A    between atoms: _105  and  _107
REMARK   44  A    between atoms: _107  and  _108
REMARK   45  A    between atoms: _107  and  _110
REMARK   46  A    between atoms: _110  and  _111
REMARK   47  A    between atoms: _111  and  _112
REMARK   48  A    between atoms: _115  and  _117
REMARK   49  A    between atoms: _117  and  _118
REMARK   50  A    between atoms: _117  and  _120
REMARK   51  A    between atoms: _120  and  _121
REMARK   52  A    between atoms: _132  and  _133
REMARK   53  A    between atoms: _138  and  _140
REMARK   54  A    between atoms: _140  and  _141
REMARK   55  A    between atoms: _140  and  _143
REMARK   56  A    between atoms: _143  and  _144
REMARK   57  A    between atoms: _147  and  _148
REMARK   58  A    between atoms: _153  and  _155
REMARK   59  A    between atoms: _155  and  _156
REMARK   60  A    between atoms: _158  and  _160
REMARK   61  A    between atoms: _160  and  _161
REMARK   62  A    between atoms: _164  and  _166
REMARK   63  A    between atoms: _166  and  _167
REMARK   64  A    between atoms: _166  and  _169
REMARK   65  A    between atoms: _169  and  _170
REMARK   66  A    between atoms: _173  and  _175
REMARK   67  A    between atoms: _175  and  _176
REMARK   68  A    between atoms: _175  and  _178
REMARK   69  A    between atoms: _178  and  _179
REMARK   70  A    between atoms: _180  and  _181
REMARK   71  A    between atoms: _190  and  _192
REMARK   72  A    between atoms: _192  and  _193
REMARK   73  A    between atoms: _192  and  _195
REMARK   74  A    between atoms: _195  and  _196
REMARK   75  A    between atoms: _199  and  _201
REMARK   76  A    between atoms: _201  and  _202
REMARK   77  A    between atoms: _201  and  _204
REMARK   78  A    between atoms: _204  and  _205
REMARK   79  A    between atoms: _208  and  _210
REMARK   80  A    between atoms: _210  and  _211
REMARK   81  A    between atoms: _210  and  _213
REMARK   82  A    between atoms: _213  and  _214
REMARK   83  A    between atoms: _219  and  _221
REMARK   84  A    between atoms: _221  and  _222
REMARK   85  A    between atoms: _221  and  _224
REMARK   86  A    between atoms: _224  and  _225
REMARK   87  A    between atoms: _228  and  _230
REMARK   88  A    between atoms: _230  and  _231
REMARK   89  A    between atoms: _233  and  _235
REMARK   90  A    between atoms: _235  and  _236
REMARK   91  A    between atoms: _239  and  _241
REMARK   92  A    between atoms: _241  and  _242
REMARK   93  A    between atoms: _241  and  _244
REMARK   94  A    between atoms: _244  and  _245
REMARK   95  A    between atoms: _247  and  _249
REMARK   96  A    between atoms: _249  and  _250
REMARK   97  A    between atoms: _252  and  _254
REMARK   98  A    between atoms: _254  and  _255
REMARK   99  A    between atoms: _254  and  _257
REMARK  100  A    between atoms: _257  and  _258
REMARK  101  A    between atoms: _263  and  _265
REMARK  102  A    between atoms: _265  and  _266
REMARK  103  A    between atoms: _265  and  _268
REMARK  104  A    between atoms: _268  and  _269
REMARK  105  A    between atoms: _274  and  _276
REMARK  106  A    between atoms: _276  and  _277
REMARK  107  A    between atoms: _276  and  _279
REMARK  108  A    between atoms: _279  and  _280
REMARK                            x       y       z     vdW  Elec       q    Type
REMARK                         _______ _______ _______ _____ _____    ______ ____
ROOT
ATOM      1  O   HOH     1      19.588   2.774   5.196  0.00  0.00    +0.000 OA
ENDROOT
TORSDOF 0
REMARK  Name = ../refined-set-2016/6rnt/6rnt_pocket.pdb
REMARK  108 active torsions:
REMARK  status: ('A' for Active; 'I' for Inactive)
REMARK    1  A    between atoms: _1  and  _3
REMARK    2  A    between atoms: _3  and  _4
REMARK    3  A    between atoms: _3  and  _6
REMARK    4  A    between atoms: _6  and  _7
REMARK    5  A    between atoms: _9  and  _11
REMARK    6  A    between atoms: _11  and  _12
REMARK    7  A    between atoms: _11  and  _14
REMARK    8  A    between atoms: _14  and  _15
REMARK    9  A    between atoms: _20  and  _22
REMARK   10  A    between atoms: _22  and  _23
REMARK   11  A    between atoms: _22  and  _25
REMARK   12  A    between atoms: _25  and  _26
REMARK   13  A    between atoms: _28  and  _30
REMARK   14  A    between atoms: _30  and  _31
REMARK   15  A    between atoms: _30  and  _33
REMARK   16  A    between atoms: _33  and  _34
REMARK   17  A    between atoms: _39  and  _40
REMARK   18  A    between atoms: _42  and  _44
REMARK   19  A    between atoms: _44  and  _45
REMARK   20  A    between atoms: _44  and  _47
REMARK   21  A    between atoms: _47  and  _48
REMARK   22  A    between atoms: _53  and  _55
REMARK   23  A    between atoms: _55  and  _56
REMARK   24  A    between atoms: _55  and  _58
REMARK   25  A    between atoms: _58  and  _59
REMARK   26  A    between atoms: _59  and  _60
REMARK   27  A    between atoms: _60  and  _61
REMARK   28  A    between atoms: _61  and  _62
REMARK   29  A    between atoms: _66  and  _68
REMARK   30  A    between atoms: _68  and  _69
REMARK   31  A    between atoms: _68  and  _71
REMARK   32  A    between atoms: _71  and  _72
REMARK   33  A    between atoms: _77  and  _78
REMARK   34  A    between atoms: _80  and  _82
REMARK   35  A    between atoms: _82  and  _83
REMARK   36  A    between atoms: _82  and  _85
REMARK   37  A    between atoms: _85  and  _86
REMARK   38  A    between atoms: _91  and  _93
REMARK   39  A    between atoms: _93  and  _94
REMARK   40  A    between atoms: _93  and  _96
REMARK   41  A    between atoms: _96  and  _97
REMARK   42  A    between atoms: _102  and  _103
REMARK   43  A    between atoms: _105  and  _107
REMARK   44  A    between atoms: _107  and  _108
REMARK   45  A    between atoms: _107  and  _110
REMARK   46  A    between atoms: _110  and  _111
REMARK   47  A    between atoms: _111  and  _112
REMARK   48  A    between atoms: _115  and  _117
REMARK   49  A    between atoms: _117  and  _118
REMARK   50  A    between atoms: _117  and  _120
REMARK   51  A    between atoms: _120  and  _121
REMARK   52  A    between atoms: _132  and  _133
REMARK   53  A    between atoms: _138  and  _140
REMARK   54  A    between atoms: _140  and  _141
REMARK   55  A    between atoms: _140  and  _143
REMARK   56  A    between atoms: _143  and  _144
REMARK   57  A    between atoms: _147  and  _148
REMARK   58  A    between atoms: _153  and  _155
REMARK   59  A    between atoms: _155  and  _156
REMARK   60  A    between atoms: _158  and  _160
REMARK   61  A    between atoms: _160  and  _161
REMARK   62  A    between atoms: _164  and  _166
REMARK   63  A    between atoms: _166  and  _167
REMARK   64  A    between atoms: _166  and  _169
REMARK   65  A    between atoms: _169  and  _170
REMARK   66  A    between atoms: _173  and  _175
REMARK   67  A    between atoms: _175  and  _176
REMARK   68  A    between atoms: _175  and  _178
REMARK   69  A    between atoms: _178  and  _179
REMARK   70  A    between atoms: _180  and  _181
REMARK   71  A    between atoms: _190  and  _192
REMARK   72  A    between atoms: _192  and  _193
REMARK   73  A    between atoms: _192  and  _195
REMARK   74  A    between atoms: _195  and  _196
REMARK   75  A    between atoms: _199  and  _201
REMARK   76  A    between atoms: _201  and  _202
REMARK   77  A    between atoms: _201  and  _204
REMARK   78  A    between atoms: _204  and  _205
REMARK   79  A    between atoms: _208  and  _210
REMARK   80  A    between atoms: _210  and  _211
REMARK   81  A    between atoms: _210  and  _213
REMARK   82  A    between atoms: _213  and  _214
REMARK   83  A    between atoms: _219  and  _221
REMARK   84  A    between atoms: _221  and  _222
REMARK   85  A    between atoms: _221  and  _224
REMARK   86  A    between atoms: _224  and  _225
REMARK   87  A    between atoms: _228  and  _230
REMARK   88  A    between atoms: _230  and  _231
REMARK   89  A    between atoms: _233  and  _235
REMARK   90  A    between atoms: _235  and  _236
REMARK   91  A    between atoms: _239  and  _241
REMARK   92  A    between atoms: _241  and  _242
REMARK   93  A    between atoms: _241  and  _244
REMARK   94  A    between atoms: _244  and  _245
REMARK   95  A    between atoms: _247  and  _249
REMARK   96  A    between atoms: _249  and  _250
REMARK   97  A    between atoms: _252  and  _254
REMARK   98  A    between atoms: _254  and  _255
REMARK   99  A    between atoms: _254  and  _257
REMARK  100  A    between atoms: _257  and  _258
REMARK  101  A    between atoms: _263  and  _265
REMARK  102  A    between atoms: _265  and  _266
REMARK  103  A    between atoms: _265  and  _268
REMARK  104  A    between atoms: _268  and  _269
REMARK  105  A    between atoms: _274  and  _276
REMARK  106  A    between atoms: _276  and  _277
REMARK  107  A    between atoms: _276  and  _279
REMARK  108  A    between atoms: _279  and  _280
REMARK                            x       y       z     vdW  Elec       q    Type
REMARK                         _______ _______ _______ _____ _____    ______ ____
ROOT
ATOM      1  O   HOH     1      19.728   5.597   7.193  0.00  0.00    +0.000 OA
ENDROOT
TORSDOF 0
REMARK  Name = ../refined-set-2016/6rnt/6rnt_pocket.pdb
REMARK  108 active torsions:
REMARK  status: ('A' for Active; 'I' for Inactive)
REMARK    1  A    between atoms: _1  and  _3
REMARK    2  A    between atoms: _3  and  _4
REMARK    3  A    between atoms: _3  and  _6
REMARK    4  A    between atoms: _6  and  _7
REMARK    5  A    between atoms: _9  and  _11
REMARK    6  A    between atoms: _11  and  _12
REMARK    7  A    between atoms: _11  and  _14
REMARK    8  A    between atoms: _14  and  _15
REMARK    9  A    between atoms: _20  and  _22
REMARK   10  A    between atoms: _22  and  _23
REMARK   11  A    between atoms: _22  and  _25
REMARK   12  A    between atoms: _25  and  _26
REMARK   13  A    between atoms: _28  and  _30
REMARK   14  A    between atoms: _30  and  _31
REMARK   15  A    between atoms: _30  and  _33
REMARK   16  A    between atoms: _33  and  _34
REMARK   17  A    between atoms: _39  and  _40
REMARK   18  A    between atoms: _42  and  _44
REMARK   19  A    between atoms: _44  and  _45
REMARK   20  A    between atoms: _44  and  _47
REMARK   21  A    between atoms: _47  and  _48
REMARK   22  A    between atoms: _53  and  _55
REMARK   23  A    between atoms: _55  and  _56
REMARK   24  A    between atoms: _55  and  _58
REMARK   25  A    between atoms: _58  and  _59
REMARK   26  A    between atoms: _59  and  _60
REMARK   27  A    between atoms: _60  and  _61
REMARK   28  A    between atoms: _61  and  _62
REMARK   29  A    between atoms: _66  and  _68
REMARK   30  A    between atoms: _68  and  _69
REMARK   31  A    between atoms: _68  and  _71
REMARK   32  A    between atoms: _71  and  _72
REMARK   33  A    between atoms: _77  and  _78
REMARK   34  A    between atoms: _80  and  _82
REMARK   35  A    between atoms: _82  and  _83
REMARK   36  A    between atoms: _82  and  _85
REMARK   37  A    between atoms: _85  and  _86
REMARK   38  A    between atoms: _91  and  _93
REMARK   39  A    between atoms: _93  and  _94
REMARK   40  A    between atoms: _93  and  _96
REMARK   41  A    between atoms: _96  and  _97
REMARK   42  A    between atoms: _102  and  _103
REMARK   43  A    between atoms: _105  and  _107
REMARK   44  A    between atoms: _107  and  _108
REMARK   45  A    between atoms: _107  and  _110
REMARK   46  A    between atoms: _110  and  _111
REMARK   47  A    between atoms: _111  and  _112
REMARK   48  A    between atoms: _115  and  _117
REMARK   49  A    between atoms: _117  and  _118
REMARK   50  A    between atoms: _117  and  _120
REMARK   51  A    between atoms: _120  and  _121
REMARK   52  A    between atoms: _132  and  _133
REMARK   53  A    between atoms: _138  and  _140
REMARK   54  A    between atoms: _140  and  _141
REMARK   55  A    between atoms: _140  and  _143
REMARK   56  A    between atoms: _143  and  _144
REMARK   57  A    between atoms: _147  and  _148
REMARK   58  A    between atoms: _153  and  _155
REMARK   59  A    between atoms: _155  and  _156
REMARK   60  A    between atoms: _158  and  _160
REMARK   61  A    between atoms: _160  and  _161
REMARK   62  A    between atoms: _164  and  _166
REMARK   63  A    between atoms: _166  and  _167
REMARK   64  A    between atoms: _166  and  _169
REMARK   65  A    between atoms: _169  and  _170
REMARK   66  A    between atoms: _173  and  _175
REMARK   67  A    between atoms: _175  and  _176
REMARK   68  A    between atoms: _175  and  _178
REMARK   69  A    between atoms: _178  and  _179
REMARK   70  A    between atoms: _180  and  _181
REMARK   71  A    between atoms: _190  and  _192
REMARK   72  A    between atoms: _192  and  _193
REMARK   73  A    between atoms: _192  and  _195
REMARK   74  A    between atoms: _195  and  _196
REMARK   75  A    between atoms: _199  and  _201
REMARK   76  A    between atoms: _201  and  _202
REMARK   77  A    between atoms: _201  and  _204
REMARK   78  A    between atoms: _204  and  _205
REMARK   79  A    between atoms: _208  and  _210
REMARK   80  A    between atoms: _210  and  _211
REMARK   81  A    between atoms: _210  and  _213
REMARK   82  A    between atoms: _213  and  _214
REMARK   83  A    between atoms: _219  and  _221
REMARK   84  A    between atoms: _221  and  _222
REMARK   85  A    between atoms: _221  and  _224
REMARK   86  A    between atoms: _224  and  _225
REMARK   87  A    between atoms: _228  and  _230
REMARK   88  A    between atoms: _230  and  _231
REMARK   89  A    between atoms: _233  and  _235
REMARK   90  A    between atoms: _235  and  _236
REMARK   91  A    between atoms: _239  and  _241
REMARK   92  A    between atoms: _241  and  _242
REMARK   93  A    between atoms: _241  and  _244
REMARK   94  A    between atoms: _244  and  _245
REMARK   95  A    between atoms: _247  and  _249
REMARK   96  A    between atoms: _249  and  _250
REMARK   97  A    between atoms: _252  and  _254
REMARK   98  A    between atoms: _254  and  _255
REMARK   99  A    between atoms: _254  and  _257
REMARK  100  A    between atoms: _257  and  _258
REMARK  101  A    between atoms: _263  and  _265
REMARK  102  A    between atoms: _265  and  _266
REMARK  103  A    between atoms: _265  and  _268
REMARK  104  A    between atoms: _268  and  _269
REMARK  105  A    between atoms: _274  and  _276
REMARK  106  A    between atoms: _276  and  _277
REMARK  107  A    between atoms: _276  and  _279
REMARK  108  A    between atoms: _279  and  _280
REMARK                            x       y       z     vdW  Elec       q    Type
REMARK                         _______ _______ _______ _____ _____    ______ ____
ROOT
ATOM      1  O   HOH     1      20.524  -0.279   2.748  0.00  0.00    +0.000 OA
ENDROOT
TORSDOF 0
REMARK  Name = ../refined-set-2016/6rnt/6rnt_pocket.pdb
REMARK  108 active torsions:
REMARK  status: ('A' for Active; 'I' for Inactive)
REMARK    1  A    between atoms: _1  and  _3
REMARK    2  A    between atoms: _3  and  _4
REMARK    3  A    between atoms: _3  and  _6
REMARK    4  A    between atoms: _6  and  _7
REMARK    5  A    between atoms: _9  and  _11
REMARK    6  A    between atoms: _11  and  _12
REMARK    7  A    between atoms: _11  and  _14
REMARK    8  A    between atoms: _14  and  _15
REMARK    9  A    between atoms: _20  and  _22
REMARK   10  A    between atoms: _22  and  _23
REMARK   11  A    between atoms: _22  and  _25
REMARK   12  A    between atoms: _25  and  _26
REMARK   13  A    between atoms: _28  and  _30
REMARK   14  A    between atoms: _30  and  _31
REMARK   15  A    between atoms: _30  and  _33
REMARK   16  A    between atoms: _33  and  _34
REMARK   17  A    between atoms: _39  and  _40
REMARK   18  A    between atoms: _42  and  _44
REMARK   19  A    between atoms: _44  and  _45
REMARK   20  A    between atoms: _44  and  _47
REMARK   21  A    between atoms: _47  and  _48
REMARK   22  A    between atoms: _53  and  _55
REMARK   23  A    between atoms: _55  and  _56
REMARK   24  A    between atoms: _55  and  _58
REMARK   25  A    between atoms: _58  and  _59
REMARK   26  A    between atoms: _59  and  _60
REMARK   27  A    between atoms: _60  and  _61
REMARK   28  A    between atoms: _61  and  _62
REMARK   29  A    between atoms: _66  and  _68
REMARK   30  A    between atoms: _68  and  _69
REMARK   31  A    between atoms: _68  and  _71
REMARK   32  A    between atoms: _71  and  _72
REMARK   33  A    between atoms: _77  and  _78
REMARK   34  A    between atoms: _80  and  _82
REMARK   35  A    between atoms: _82  and  _83
REMARK   36  A    between atoms: _82  and  _85
REMARK   37  A    between atoms: _85  and  _86
REMARK   38  A    between atoms: _91  and  _93
REMARK   39  A    between atoms: _93  and  _94
REMARK   40  A    between atoms: _93  and  _96
REMARK   41  A    between atoms: _96  and  _97
REMARK   42  A    between atoms: _102  and  _103
REMARK   43  A    between atoms: _105  and  _107
REMARK   44  A    between atoms: _107  and  _108
REMARK   45  A    between atoms: _107  and  _110
REMARK   46  A    between atoms: _110  and  _111
REMARK   47  A    between atoms: _111  and  _112
REMARK   48  A    between atoms: _115  and  _117
REMARK   49  A    between atoms: _117  and  _118
REMARK   50  A    between atoms: _117  and  _120
REMARK   51  A    between atoms: _120  and  _121
REMARK   52  A    between atoms: _132  and  _133
REMARK   53  A    between atoms: _138  and  _140
REMARK   54  A    between atoms: _140  and  _141
REMARK   55  A    between atoms: _140  and  _143
REMARK   56  A    between atoms: _143  and  _144
REMARK   57  A    between atoms: _147  and  _148
REMARK   58  A    between atoms: _153  and  _155
REMARK   59  A    between atoms: _155  and  _156
REMARK   60  A    between atoms: _158  and  _160
REMARK   61  A    between atoms: _160  and  _161
REMARK   62  A    between atoms: _164  and  _166
REMARK   63  A    between atoms: _166  and  _167
REMARK   64  A    between atoms: _166  and  _169
REMARK   65  A    between atoms: _169  and  _170
REMARK   66  A    between atoms: _173  and  _175
REMARK   67  A    between atoms: _175  and  _176
REMARK   68  A    between atoms: _175  and  _178
REMARK   69  A    between atoms: _178  and  _179
REMARK   70  A    between atoms: _180  and  _181
REMARK   71  A    between atoms: _190  and  _192
REMARK   72  A    between atoms: _192  and  _193
REMARK   73  A    between atoms: _192  and  _195
REMARK   74  A    between atoms: _195  and  _196
REMARK   75  A    between atoms: _199  and  _201
REMARK   76  A    between atoms: _201  and  _202
REMARK   77  A    between atoms: _201  and  _204
REMARK   78  A    between atoms: _204  and  _205
REMARK   79  A    between atoms: _208  and  _210
REMARK   80  A    between atoms: _210  and  _211
REMARK   81  A    between atoms: _210  and  _213
REMARK   82  A    between atoms: _213  and  _214
REMARK   83  A    between atoms: _219  and  _221
REMARK   84  A    between atoms: _221  and  _222
REMARK   85  A    between atoms: _221  and  _224
REMARK   86  A    between atoms: _224  and  _225
REMARK   87  A    between atoms: _228  and  _230
REMARK   88  A    between atoms: _230  and  _231
REMARK   89  A    between atoms: _233  and  _235
REMARK   90  A    between atoms: _235  and  _236
REMARK   91  A    between atoms: _239  and  _241
REMARK   92  A    between atoms: _241  and  _242
REMARK   93  A    between atoms: _241  and  _244
REMARK   94  A    between atoms: _244  and  _245
REMARK   95  A    between atoms: _247  and  _249
REMARK   96  A    between atoms: _249  and  _250
REMARK   97  A    between atoms: _252  and  _254
REMARK   98  A    between atoms: _254  and  _255
REMARK   99  A    between atoms: _254  and  _257
REMARK  100  A    between atoms: _257  and  _258
REMARK  101  A    between atoms: _263  and  _265
REMARK  102  A    between atoms: _265  and  _266
REMARK  103  A    between atoms: _265  and  _268
REMARK  104  A    between atoms: _268  and  _269
REMARK  105  A    between atoms: _274  and  _276
REMARK  106  A    between atoms: _276  and  _277
REMARK  107  A    between atoms: _276  and  _279
REMARK  108  A    between atoms: _279  and  _280
REMARK                            x       y       z     vdW  Elec       q    Type
REMARK                         _______ _______ _______ _____ _____    ______ ____
ROOT
ATOM      1  O   HOH     1      21.219   2.293   2.987  0.00  0.00    +0.000 OA
ENDROOT
TORSDOF 0
REMARK  Name = ../refined-set-2016/6rnt/6rnt_pocket.pdb
REMARK  108 active torsions:
REMARK  status: ('A' for Active; 'I' for Inactive)
REMARK    1  A    between atoms: _1  and  _3
REMARK    2  A    between atoms: _3  and  _4
REMARK    3  A    between atoms: _3  and  _6
REMARK    4  A    between atoms: _6  and  _7
REMARK    5  A    between atoms: _9  and  _11
REMARK    6  A    between atoms: _11  and  _12
REMARK    7  A    between atoms: _11  and  _14
REMARK    8  A    between atoms: _14  and  _15
REMARK    9  A    between atoms: _20  and  _22
REMARK   10  A    between atoms: _22  and  _23
REMARK   11  A    between atoms: _22  and  _25
REMARK   12  A    between atoms: _25  and  _26
REMARK   13  A    between atoms: _28  and  _30
REMARK   14  A    between atoms: _30  and  _31
REMARK   15  A    between atoms: _30  and  _33
REMARK   16  A    between atoms: _33  and  _34
REMARK   17  A    between atoms: _39  and  _40
REMARK   18  A    between atoms: _42  and  _44
REMARK   19  A    between atoms: _44  and  _45
REMARK   20  A    between atoms: _44  and  _47
REMARK   21  A    between atoms: _47  and  _48
REMARK   22  A    between atoms: _53  and  _55
REMARK   23  A    between atoms: _55  and  _56
REMARK   24  A    between atoms: _55  and  _58
REMARK   25  A    between atoms: _58  and  _59
REMARK   26  A    between atoms: _59  and  _60
REMARK   27  A    between atoms: _60  and  _61
REMARK   28  A    between atoms: _61  and  _62
REMARK   29  A    between atoms: _66  and  _68
REMARK   30  A    between atoms: _68  and  _69
REMARK   31  A    between atoms: _68  and  _71
REMARK   32  A    between atoms: _71  and  _72
REMARK   33  A    between atoms: _77  and  _78
REMARK   34  A    between atoms: _80  and  _82
REMARK   35  A    between atoms: _82  and  _83
REMARK   36  A    between atoms: _82  and  _85
REMARK   37  A    between atoms: _85  and  _86
REMARK   38  A    between atoms: _91  and  _93
REMARK   39  A    between atoms: _93  and  _94
REMARK   40  A    between atoms: _93  and  _96
REMARK   41  A    between atoms: _96  and  _97
REMARK   42  A    between atoms: _102  and  _103
REMARK   43  A    between atoms: _105  and  _107
REMARK   44  A    between atoms: _107  and  _108
REMARK   45  A    between atoms: _107  and  _110
REMARK   46  A    between atoms: _110  and  _111
REMARK   47  A    between atoms: _111  and  _112
REMARK   48  A    between atoms: _115  and  _117
REMARK   49  A    between atoms: _117  and  _118
REMARK   50  A    between atoms: _117  and  _120
REMARK   51  A    between atoms: _120  and  _121
REMARK   52  A    between atoms: _132  and  _133
REMARK   53  A    between atoms: _138  and  _140
REMARK   54  A    between atoms: _140  and  _141
REMARK   55  A    between atoms: _140  and  _143
REMARK   56  A    between atoms: _143  and  _144
REMARK   57  A    between atoms: _147  and  _148
REMARK   58  A    between atoms: _153  and  _155
REMARK   59  A    between atoms: _155  and  _156
REMARK   60  A    between atoms: _158  and  _160
REMARK   61  A    between atoms: _160  and  _161
REMARK   62  A    between atoms: _164  and  _166
REMARK   63  A    between atoms: _166  and  _167
REMARK   64  A    between atoms: _166  and  _169
REMARK   65  A    between atoms: _169  and  _170
REMARK   66  A    between atoms: _173  and  _175
REMARK   67  A    between atoms: _175  and  _176
REMARK   68  A    between atoms: _175  and  _178
REMARK   69  A    between atoms: _178  and  _179
REMARK   70  A    between atoms: _180  and  _181
REMARK   71  A    between atoms: _190  and  _192
REMARK   72  A    between atoms: _192  and  _193
REMARK   73  A    between atoms: _192  and  _195
REMARK   74  A    between atoms: _195  and  _196
REMARK   75  A    between atoms: _199  and  _201
REMARK   76  A    between atoms: _201  and  _202
REMARK   77  A    between atoms: _201  and  _204
REMARK   78  A    between atoms: _204  and  _205
REMARK   79  A    between atoms: _208  and  _210
REMARK   80  A    between atoms: _210  and  _211
REMARK   81  A    between atoms: _210  and  _213
REMARK   82  A    between atoms: _213  and  _214
REMARK   83  A    between atoms: _219  and  _221
REMARK   84  A    between atoms: _221  and  _222
REMARK   85  A    between atoms: _221  and  _224
REMARK   86  A    between atoms: _224  and  _225
REMARK   87  A    between atoms: _228  and  _230
REMARK   88  A    between atoms: _230  and  _231
REMARK   89  A    between atoms: _233  and  _235
REMARK   90  A    between atoms: _235  and  _236
REMARK   91  A    between atoms: _239  and  _241
REMARK   92  A    between atoms: _241  and  _242
REMARK   93  A    between atoms: _241  and  _244
REMARK   94  A    between atoms: _244  and  _245
REMARK   95  A    between atoms: _247  and  _249
REMARK   96  A    between atoms: _249  and  _250
REMARK   97  A    between atoms: _252  and  _254
REMARK   98  A    between atoms: _254  and  _255
REMARK   99  A    between atoms: _254  and  _257
REMARK  100  A    between atoms: _257  and  _258
REMARK  101  A    between atoms: _263  and  _265
REMARK  102  A    between atoms: _265  and  _266
REMARK  103  A    between atoms: _265  and  _268
REMARK  104  A    between atoms: _268  and  _269
REMARK  105  A    between atoms: _274  and  _276
REMARK  106  A    between atoms: _276  and  _277
REMARK  107  A    between atoms: _276  and  _279
REMARK  108  A    between atoms: _279  and  _280
REMARK                            x       y       z     vdW  Elec       q    Type
REMARK                         _______ _______ _______ _____ _____    ______ ____
ROOT
ATOM      1  O   HOH     1      21.813   3.738   0.895  0.00  0.00    +0.000 OA
ENDROOT
TORSDOF 0
REMARK  Name = ../refined-set-2016/6rnt/6rnt_pocket.pdb
REMARK  108 active torsions:
REMARK  status: ('A' for Active; 'I' for Inactive)
REMARK    1  A    between atoms: _1  and  _3
REMARK    2  A    between atoms: _3  and  _4
REMARK    3  A    between atoms: _3  and  _6
REMARK    4  A    between atoms: _6  and  _7
REMARK    5  A    between atoms: _9  and  _11
REMARK    6  A    between atoms: _11  and  _12
REMARK    7  A    between atoms: _11  and  _14
REMARK    8  A    between atoms: _14  and  _15
REMARK    9  A    between atoms: _20  and  _22
REMARK   10  A    between atoms: _22  and  _23
REMARK   11  A    between atoms: _22  and  _25
REMARK   12  A    between atoms: _25  and  _26
REMARK   13  A    between atoms: _28  and  _30
REMARK   14  A    between atoms: _30  and  _31
REMARK   15  A    between atoms: _30  and  _33
REMARK   16  A    between atoms: _33  and  _34
REMARK   17  A    between atoms: _39  and  _40
REMARK   18  A    between atoms: _42  and  _44
REMARK   19  A    between atoms: _44  and  _45
REMARK   20  A    between atoms: _44  and  _47
REMARK   21  A    between atoms: _47  and  _48
REMARK   22  A    between atoms: _53  and  _55
REMARK   23  A    between atoms: _55  and  _56
REMARK   24  A    between atoms: _55  and  _58
REMARK   25  A    between atoms: _58  and  _59
REMARK   26  A    between atoms: _59  and  _60
REMARK   27  A    between atoms: _60  and  _61
REMARK   28  A    between atoms: _61  and  _62
REMARK   29  A    between atoms: _66  and  _68
REMARK   30  A    between atoms: _68  and  _69
REMARK   31  A    between atoms: _68  and  _71
REMARK   32  A    between atoms: _71  and  _72
REMARK   33  A    between atoms: _77  and  _78
REMARK   34  A    between atoms: _80  and  _82
REMARK   35  A    between atoms: _82  and  _83
REMARK   36  A    between atoms: _82  and  _85
REMARK   37  A    between atoms: _85  and  _86
REMARK   38  A    between atoms: _91  and  _93
REMARK   39  A    between atoms: _93  and  _94
REMARK   40  A    between atoms: _93  and  _96
REMARK   41  A    between atoms: _96  and  _97
REMARK   42  A    between atoms: _102  and  _103
REMARK   43  A    between atoms: _105  and  _107
REMARK   44  A    between atoms: _107  and  _108
REMARK   45  A    between atoms: _107  and  _110
REMARK   46  A    between atoms: _110  and  _111
REMARK   47  A    between atoms: _111  and  _112
REMARK   48  A    between atoms: _115  and  _117
REMARK   49  A    between atoms: _117  and  _118
REMARK   50  A    between atoms: _117  and  _120
REMARK   51  A    between atoms: _120  and  _121
REMARK   52  A    between atoms: _132  and  _133
REMARK   53  A    between atoms: _138  and  _140
REMARK   54  A    between atoms: _140  and  _141
REMARK   55  A    between atoms: _140  and  _143
REMARK   56  A    between atoms: _143  and  _144
REMARK   57  A    between atoms: _147  and  _148
REMARK   58  A    between atoms: _153  and  _155
REMARK   59  A    between atoms: _155  and  _156
REMARK   60  A    between atoms: _158  and  _160
REMARK   61  A    between atoms: _160  and  _161
REMARK   62  A    between atoms: _164  and  _166
REMARK   63  A    between atoms: _166  and  _167
REMARK   64  A    between atoms: _166  and  _169
REMARK   65  A    between atoms: _169  and  _170
REMARK   66  A    between atoms: _173  and  _175
REMARK   67  A    between atoms: _175  and  _176
REMARK   68  A    between atoms: _175  and  _178
REMARK   69  A    between atoms: _178  and  _179
REMARK   70  A    between atoms: _180  and  _181
REMARK   71  A    between atoms: _190  and  _192
REMARK   72  A    between atoms: _192  and  _193
REMARK   73  A    between atoms: _192  and  _195
REMARK   74  A    between atoms: _195  and  _196
REMARK   75  A    between atoms: _199  and  _201
REMARK   76  A    between atoms: _201  and  _202
REMARK   77  A    between atoms: _201  and  _204
REMARK   78  A    between atoms: _204  and  _205
REMARK   79  A    between atoms: _208  and  _210
REMARK   80  A    between atoms: _210  and  _211
REMARK   81  A    between atoms: _210  and  _213
REMARK   82  A    between atoms: _213  and  _214
REMARK   83  A    between atoms: _219  and  _221
REMARK   84  A    between atoms: _221  and  _222
REMARK   85  A    between atoms: _221  and  _224
REMARK   86  A    between atoms: _224  and  _225
REMARK   87  A    between atoms: _228  and  _230
REMARK   88  A    between atoms: _230  and  _231
REMARK   89  A    between atoms: _233  and  _235
REMARK   90  A    between atoms: _235  and  _236
REMARK   91  A    between atoms: _239  and  _241
REMARK   92  A    between atoms: _241  and  _242
REMARK   93  A    between atoms: _241  and  _244
REMARK   94  A    between atoms: _244  and  _245
REMARK   95  A    between atoms: _247  and  _249
REMARK   96  A    between atoms: _249  and  _250
REMARK   97  A    between atoms: _252  and  _254
REMARK   98  A    between atoms: _254  and  _255
REMARK   99  A    between atoms: _254  and  _257
REMARK  100  A    between atoms: _257  and  _258
REMARK  101  A    between atoms: _263  and  _265
REMARK  102  A    between atoms: _265  and  _266
REMARK  103  A    between atoms: _265  and  _268
REMARK  104  A    between atoms: _268  and  _269
REMARK  105  A    between atoms: _274  and  _276
REMARK  106  A    between atoms: _276  and  _277
REMARK  107  A    between atoms: _276  and  _279
REMARK  108  A    between atoms: _279  and  _280
REMARK                            x       y       z     vdW  Elec       q    Type
REMARK                         _______ _______ _______ _____ _____    ______ ____
ROOT
ATOM      1  O   HOH     1      23.070  16.105   1.109  0.00  0.00    +0.000 OA
ENDROOT
TORSDOF 0
REMARK  Name = ../refined-set-2016/6rnt/6rnt_pocket.pdb
REMARK  108 active torsions:
REMARK  status: ('A' for Active; 'I' for Inactive)
REMARK    1  A    between atoms: _1  and  _3
REMARK    2  A    between atoms: _3  and  _4
REMARK    3  A    between atoms: _3  and  _6
REMARK    4  A    between atoms: _6  and  _7
REMARK    5  A    between atoms: _9  and  _11
REMARK    6  A    between atoms: _11  and  _12
REMARK    7  A    between atoms: _11  and  _14
REMARK    8  A    between atoms: _14  and  _15
REMARK    9  A    between atoms: _20  and  _22
REMARK   10  A    between atoms: _22  and  _23
REMARK   11  A    between atoms: _22  and  _25
REMARK   12  A    between atoms: _25  and  _26
REMARK   13  A    between atoms: _28  and  _30
REMARK   14  A    between atoms: _30  and  _31
REMARK   15  A    between atoms: _30  and  _33
REMARK   16  A    between atoms: _33  and  _34
REMARK   17  A    between atoms: _39  and  _40
REMARK   18  A    between atoms: _42  and  _44
REMARK   19  A    between atoms: _44  and  _45
REMARK   20  A    between atoms: _44  and  _47
REMARK   21  A    between atoms: _47  and  _48
REMARK   22  A    between atoms: _53  and  _55
REMARK   23  A    between atoms: _55  and  _56
REMARK   24  A    between atoms: _55  and  _58
REMARK   25  A    between atoms: _58  and  _59
REMARK   26  A    between atoms: _59  and  _60
REMARK   27  A    between atoms: _60  and  _61
REMARK   28  A    between atoms: _61  and  _62
REMARK   29  A    between atoms: _66  and  _68
REMARK   30  A    between atoms: _68  and  _69
REMARK   31  A    between atoms: _68  and  _71
REMARK   32  A    between atoms: _71  and  _72
REMARK   33  A    between atoms: _77  and  _78
REMARK   34  A    between atoms: _80  and  _82
REMARK   35  A    between atoms: _82  and  _83
REMARK   36  A    between atoms: _82  and  _85
REMARK   37  A    between atoms: _85  and  _86
REMARK   38  A    between atoms: _91  and  _93
REMARK   39  A    between atoms: _93  and  _94
REMARK   40  A    between atoms: _93  and  _96
REMARK   41  A    between atoms: _96  and  _97
REMARK   42  A    between atoms: _102  and  _103
REMARK   43  A    between atoms: _105  and  _107
REMARK   44  A    between atoms: _107  and  _108
REMARK   45  A    between atoms: _107  and  _110
REMARK   46  A    between atoms: _110  and  _111
REMARK   47  A    between atoms: _111  and  _112
REMARK   48  A    between atoms: _115  and  _117
REMARK   49  A    between atoms: _117  and  _118
REMARK   50  A    between atoms: _117  and  _120
REMARK   51  A    between atoms: _120  and  _121
REMARK   52  A    between atoms: _132  and  _133
REMARK   53  A    between atoms: _138  and  _140
REMARK   54  A    between atoms: _140  and  _141
REMARK   55  A    between atoms: _140  and  _143
REMARK   56  A    between atoms: _143  and  _144
REMARK   57  A    between atoms: _147  and  _148
REMARK   58  A    between atoms: _153  and  _155
REMARK   59  A    between atoms: _155  and  _156
REMARK   60  A    between atoms: _158  and  _160
REMARK   61  A    between atoms: _160  and  _161
REMARK   62  A    between atoms: _164  and  _166
REMARK   63  A    between atoms: _166  and  _167
REMARK   64  A    between atoms: _166  and  _169
REMARK   65  A    between atoms: _169  and  _170
REMARK   66  A    between atoms: _173  and  _175
REMARK   67  A    between atoms: _175  and  _176
REMARK   68  A    between atoms: _175  and  _178
REMARK   69  A    between atoms: _178  and  _179
REMARK   70  A    between atoms: _180  and  _181
REMARK   71  A    between atoms: _190  and  _192
REMARK   72  A    between atoms: _192  and  _193
REMARK   73  A    between atoms: _192  and  _195
REMARK   74  A    between atoms: _195  and  _196
REMARK   75  A    between atoms: _199  and  _201
REMARK   76  A    between atoms: _201  and  _202
REMARK   77  A    between atoms: _201  and  _204
REMARK   78  A    between atoms: _204  and  _205
REMARK   79  A    between atoms: _208  and  _210
REMARK   80  A    between atoms: _210  and  _211
REMARK   81  A    between atoms: _210  and  _213
REMARK   82  A    between atoms: _213  and  _214
REMARK   83  A    between atoms: _219  and  _221
REMARK   84  A    between atoms: _221  and  _222
REMARK   85  A    between atoms: _221  and  _224
REMARK   86  A    between atoms: _224  and  _225
REMARK   87  A    between atoms: _228  and  _230
REMARK   88  A    between atoms: _230  and  _231
REMARK   89  A    between atoms: _233  and  _235
REMARK   90  A    between atoms: _235  and  _236
REMARK   91  A    between atoms: _239  and  _241
REMARK   92  A    between atoms: _241  and  _242
REMARK   93  A    between atoms: _241  and  _244
REMARK   94  A    between atoms: _244  and  _245
REMARK   95  A    between atoms: _247  and  _249
REMARK   96  A    between atoms: _249  and  _250
REMARK   97  A    between atoms: _252  and  _254
REMARK   98  A    between atoms: _254  and  _255
REMARK   99  A    between atoms: _254  and  _257
REMARK  100  A    between atoms: _257  and  _258
REMARK  101  A    between atoms: _263  and  _265
REMARK  102  A    between atoms: _265  and  _266
REMARK  103  A    between atoms: _265  and  _268
REMARK  104  A    between atoms: _268  and  _269
REMARK  105  A    between atoms: _274  and  _276
REMARK  106  A    between atoms: _276  and  _277
REMARK  107  A    between atoms: _276  and  _279
REMARK  108  A    between atoms: _279  and  _280
REMARK                            x       y       z     vdW  Elec       q    Type
REMARK                         _______ _______ _______ _____ _____    ______ ____
ROOT
ATOM      1  O   HOH     1      23.814  18.969   1.638  0.00  0.00    +0.000 OA
ENDROOT
TORSDOF 0
REMARK  Name = ../refined-set-2016/6rnt/6rnt_pocket.pdb
REMARK  108 active torsions:
REMARK  status: ('A' for Active; 'I' for Inactive)
REMARK    1  A    between atoms: _1  and  _3
REMARK    2  A    between atoms: _3  and  _4
REMARK    3  A    between atoms: _3  and  _6
REMARK    4  A    between atoms: _6  and  _7
REMARK    5  A    between atoms: _9  and  _11
REMARK    6  A    between atoms: _11  and  _12
REMARK    7  A    between atoms: _11  and  _14
REMARK    8  A    between atoms: _14  and  _15
REMARK    9  A    between atoms: _20  and  _22
REMARK   10  A    between atoms: _22  and  _23
REMARK   11  A    between atoms: _22  and  _25
REMARK   12  A    between atoms: _25  and  _26
REMARK   13  A    between atoms: _28  and  _30
REMARK   14  A    between atoms: _30  and  _31
REMARK   15  A    between atoms: _30  and  _33
REMARK   16  A    between atoms: _33  and  _34
REMARK   17  A    between atoms: _39  and  _40
REMARK   18  A    between atoms: _42  and  _44
REMARK   19  A    between atoms: _44  and  _45
REMARK   20  A    between atoms: _44  and  _47
REMARK   21  A    between atoms: _47  and  _48
REMARK   22  A    between atoms: _53  and  _55
REMARK   23  A    between atoms: _55  and  _56
REMARK   24  A    between atoms: _55  and  _58
REMARK   25  A    between atoms: _58  and  _59
REMARK   26  A    between atoms: _59  and  _60
REMARK   27  A    between atoms: _60  and  _61
REMARK   28  A    between atoms: _61  and  _62
REMARK   29  A    between atoms: _66  and  _68
REMARK   30  A    between atoms: _68  and  _69
REMARK   31  A    between atoms: _68  and  _71
REMARK   32  A    between atoms: _71  and  _72
REMARK   33  A    between atoms: _77  and  _78
REMARK   34  A    between atoms: _80  and  _82
REMARK   35  A    between atoms: _82  and  _83
REMARK   36  A    between atoms: _82  and  _85
REMARK   37  A    between atoms: _85  and  _86
REMARK   38  A    between atoms: _91  and  _93
REMARK   39  A    between atoms: _93  and  _94
REMARK   40  A    between atoms: _93  and  _96
REMARK   41  A    between atoms: _96  and  _97
REMARK   42  A    between atoms: _102  and  _103
REMARK   43  A    between atoms: _105  and  _107
REMARK   44  A    between atoms: _107  and  _108
REMARK   45  A    between atoms: _107  and  _110
REMARK   46  A    between atoms: _110  and  _111
REMARK   47  A    between atoms: _111  and  _112
REMARK   48  A    between atoms: _115  and  _117
REMARK   49  A    between atoms: _117  and  _118
REMARK   50  A    between atoms: _117  and  _120
REMARK   51  A    between atoms: _120  and  _121
REMARK   52  A    between atoms: _132  and  _133
REMARK   53  A    between atoms: _138  and  _140
REMARK   54  A    between atoms: _140  and  _141
REMARK   55  A    between atoms: _140  and  _143
REMARK   56  A    between atoms: _143  and  _144
REMARK   57  A    between atoms: _147  and  _148
REMARK   58  A    between atoms: _153  and  _155
REMARK   59  A    between atoms: _155  and  _156
REMARK   60  A    between atoms: _158  and  _160
REMARK   61  A    between atoms: _160  and  _161
REMARK   62  A    between atoms: _164  and  _166
REMARK   63  A    between atoms: _166  and  _167
REMARK   64  A    between atoms: _166  and  _169
REMARK   65  A    between atoms: _169  and  _170
REMARK   66  A    between atoms: _173  and  _175
REMARK   67  A    between atoms: _175  and  _176
REMARK   68  A    between atoms: _175  and  _178
REMARK   69  A    between atoms: _178  and  _179
REMARK   70  A    between atoms: _180  and  _181
REMARK   71  A    between atoms: _190  and  _192
REMARK   72  A    between atoms: _192  and  _193
REMARK   73  A    between atoms: _192  and  _195
REMARK   74  A    between atoms: _195  and  _196
REMARK   75  A    between atoms: _199  and  _201
REMARK   76  A    between atoms: _201  and  _202
REMARK   77  A    between atoms: _201  and  _204
REMARK   78  A    between atoms: _204  and  _205
REMARK   79  A    between atoms: _208  and  _210
REMARK   80  A    between atoms: _210  and  _211
REMARK   81  A    between atoms: _210  and  _213
REMARK   82  A    between atoms: _213  and  _214
REMARK   83  A    between atoms: _219  and  _221
REMARK   84  A    between atoms: _221  and  _222
REMARK   85  A    between atoms: _221  and  _224
REMARK   86  A    between atoms: _224  and  _225
REMARK   87  A    between atoms: _228  and  _230
REMARK   88  A    between atoms: _230  and  _231
REMARK   89  A    between atoms: _233  and  _235
REMARK   90  A    between atoms: _235  and  _236
REMARK   91  A    between atoms: _239  and  _241
REMARK   92  A    between atoms: _241  and  _242
REMARK   93  A    between atoms: _241  and  _244
REMARK   94  A    between atoms: _244  and  _245
REMARK   95  A    between atoms: _247  and  _249
REMARK   96  A    between atoms: _249  and  _250
REMARK   97  A    between atoms: _252  and  _254
REMARK   98  A    between atoms: _254  and  _255
REMARK   99  A    between atoms: _254  and  _257
REMARK  100  A    between atoms: _257  and  _258
REMARK  101  A    between atoms: _263  and  _265
REMARK  102  A    between atoms: _265  and  _266
REMARK  103  A    between atoms: _265  and  _268
REMARK  104  A    between atoms: _268  and  _269
REMARK  105  A    between atoms: _274  and  _276
REMARK  106  A    between atoms: _276  and  _277
REMARK  107  A    between atoms: _276  and  _279
REMARK  108  A    between atoms: _279  and  _280
REMARK                            x       y       z     vdW  Elec       q    Type
REMARK                         _______ _______ _______ _____ _____    ______ ____
ROOT
ATOM      1  O   HOH     1      24.395   6.438   2.195  0.00  0.00    +0.000 OA
ENDROOT
TORSDOF 0
REMARK  Name = ../refined-set-2016/6rnt/6rnt_pocket.pdb
REMARK  108 active torsions:
REMARK  status: ('A' for Active; 'I' for Inactive)
REMARK    1  A    between atoms: _1  and  _3
REMARK    2  A    between atoms: _3  and  _4
REMARK    3  A    between atoms: _3  and  _6
REMARK    4  A    between atoms: _6  and  _7
REMARK    5  A    between atoms: _9  and  _11
REMARK    6  A    between atoms: _11  and  _12
REMARK    7  A    between atoms: _11  and  _14
REMARK    8  A    between atoms: _14  and  _15
REMARK    9  A    between atoms: _20  and  _22
REMARK   10  A    between atoms: _22  and  _23
REMARK   11  A    between atoms: _22  and  _25
REMARK   12  A    between atoms: _25  and  _26
REMARK   13  A    between atoms: _28  and  _30
REMARK   14  A    between atoms: _30  and  _31
REMARK   15  A    between atoms: _30  and  _33
REMARK   16  A    between atoms: _33  and  _34
REMARK   17  A    between atoms: _39  and  _40
REMARK   18  A    between atoms: _42  and  _44
REMARK   19  A    between atoms: _44  and  _45
REMARK   20  A    between atoms: _44  and  _47
REMARK   21  A    between atoms: _47  and  _48
REMARK   22  A    between atoms: _53  and  _55
REMARK   23  A    between atoms: _55  and  _56
REMARK   24  A    between atoms: _55  and  _58
REMARK   25  A    between atoms: _58  and  _59
REMARK   26  A    between atoms: _59  and  _60
REMARK   27  A    between atoms: _60  and  _61
REMARK   28  A    between atoms: _61  and  _62
REMARK   29  A    between atoms: _66  and  _68
REMARK   30  A    between atoms: _68  and  _69
REMARK   31  A    between atoms: _68  and  _71
REMARK   32  A    between atoms: _71  and  _72
REMARK   33  A    between atoms: _77  and  _78
REMARK   34  A    between atoms: _80  and  _82
REMARK   35  A    between atoms: _82  and  _83
REMARK   36  A    between atoms: _82  and  _85
REMARK   37  A    between atoms: _85  and  _86
REMARK   38  A    between atoms: _91  and  _93
REMARK   39  A    between atoms: _93  and  _94
REMARK   40  A    between atoms: _93  and  _96
REMARK   41  A    between atoms: _96  and  _97
REMARK   42  A    between atoms: _102  and  _103
REMARK   43  A    between atoms: _105  and  _107
REMARK   44  A    between atoms: _107  and  _108
REMARK   45  A    between atoms: _107  and  _110
REMARK   46  A    between atoms: _110  and  _111
REMARK   47  A    between atoms: _111  and  _112
REMARK   48  A    between atoms: _115  and  _117
REMARK   49  A    between atoms: _117  and  _118
REMARK   50  A    between atoms: _117  and  _120
REMARK   51  A    between atoms: _120  and  _121
REMARK   52  A    between atoms: _132  and  _133
REMARK   53  A    between atoms: _138  and  _140
REMARK   54  A    between atoms: _140  and  _141
REMARK   55  A    between atoms: _140  and  _143
REMARK   56  A    between atoms: _143  and  _144
REMARK   57  A    between atoms: _147  and  _148
REMARK   58  A    between atoms: _153  and  _155
REMARK   59  A    between atoms: _155  and  _156
REMARK   60  A    between atoms: _158  and  _160
REMARK   61  A    between atoms: _160  and  _161
REMARK   62  A    between atoms: _164  and  _166
REMARK   63  A    between atoms: _166  and  _167
REMARK   64  A    between atoms: _166  and  _169
REMARK   65  A    between atoms: _169  and  _170
REMARK   66  A    between atoms: _173  and  _175
REMARK   67  A    between atoms: _175  and  _176
REMARK   68  A    between atoms: _175  and  _178
REMARK   69  A    between atoms: _178  and  _179
REMARK   70  A    between atoms: _180  and  _181
REMARK   71  A    between atoms: _190  and  _192
REMARK   72  A    between atoms: _192  and  _193
REMARK   73  A    between atoms: _192  and  _195
REMARK   74  A    between atoms: _195  and  _196
REMARK   75  A    between atoms: _199  and  _201
REMARK   76  A    between atoms: _201  and  _202
REMARK   77  A    between atoms: _201  and  _204
REMARK   78  A    between atoms: _204  and  _205
REMARK   79  A    between atoms: _208  and  _210
REMARK   80  A    between atoms: _210  and  _211
REMARK   81  A    between atoms: _210  and  _213
REMARK   82  A    between atoms: _213  and  _214
REMARK   83  A    between atoms: _219  and  _221
REMARK   84  A    between atoms: _221  and  _222
REMARK   85  A    between atoms: _221  and  _224
REMARK   86  A    between atoms: _224  and  _225
REMARK   87  A    between atoms: _228  and  _230
REMARK   88  A    between atoms: _230  and  _231
REMARK   89  A    between atoms: _233  and  _235
REMARK   90  A    between atoms: _235  and  _236
REMARK   91  A    between atoms: _239  and  _241
REMARK   92  A    between atoms: _241  and  _242
REMARK   93  A    between atoms: _241  and  _244
REMARK   94  A    between atoms: _244  and  _245
REMARK   95  A    between atoms: _247  and  _249
REMARK   96  A    between atoms: _249  and  _250
REMARK   97  A    between atoms: _252  and  _254
REMARK   98  A    between atoms: _254  and  _255
REMARK   99  A    between atoms: _254  and  _257
REMARK  100  A    between atoms: _257  and  _258
REMARK  101  A    between atoms: _263  and  _265
REMARK  102  A    between atoms: _265  and  _266
REMARK  103  A    between atoms: _265  and  _268
REMARK  104  A    between atoms: _268  and  _269
REMARK  105  A    between atoms: _274  and  _276
REMARK  106  A    between atoms: _276  and  _277
REMARK  107  A    between atoms: _276  and  _279
REMARK  108  A    between atoms: _279  and  _280
REMARK                            x       y       z     vdW  Elec       q    Type
REMARK                         _______ _______ _______ _____ _____    ______ ____
ROOT
ATOM      1  O   HOH     1      24.432   4.314  -0.950  0.00  0.00    +0.000 OA
ENDROOT
TORSDOF 0
REMARK  Name = ../refined-set-2016/6rnt/6rnt_pocket.pdb
REMARK  108 active torsions:
REMARK  status: ('A' for Active; 'I' for Inactive)
REMARK    1  A    between atoms: _1  and  _3
REMARK    2  A    between atoms: _3  and  _4
REMARK    3  A    between atoms: _3  and  _6
REMARK    4  A    between atoms: _6  and  _7
REMARK    5  A    between atoms: _9  and  _11
REMARK    6  A    between atoms: _11  and  _12
REMARK    7  A    between atoms: _11  and  _14
REMARK    8  A    between atoms: _14  and  _15
REMARK    9  A    between atoms: _20  and  _22
REMARK   10  A    between atoms: _22  and  _23
REMARK   11  A    between atoms: _22  and  _25
REMARK   12  A    between atoms: _25  and  _26
REMARK   13  A    between atoms: _28  and  _30
REMARK   14  A    between atoms: _30  and  _31
REMARK   15  A    between atoms: _30  and  _33
REMARK   16  A    between atoms: _33  and  _34
REMARK   17  A    between atoms: _39  and  _40
REMARK   18  A    between atoms: _42  and  _44
REMARK   19  A    between atoms: _44  and  _45
REMARK   20  A    between atoms: _44  and  _47
REMARK   21  A    between atoms: _47  and  _48
REMARK   22  A    between atoms: _53  and  _55
REMARK   23  A    between atoms: _55  and  _56
REMARK   24  A    between atoms: _55  and  _58
REMARK   25  A    between atoms: _58  and  _59
REMARK   26  A    between atoms: _59  and  _60
REMARK   27  A    between atoms: _60  and  _61
REMARK   28  A    between atoms: _61  and  _62
REMARK   29  A    between atoms: _66  and  _68
REMARK   30  A    between atoms: _68  and  _69
REMARK   31  A    between atoms: _68  and  _71
REMARK   32  A    between atoms: _71  and  _72
REMARK   33  A    between atoms: _77  and  _78
REMARK   34  A    between atoms: _80  and  _82
REMARK   35  A    between atoms: _82  and  _83
REMARK   36  A    between atoms: _82  and  _85
REMARK   37  A    between atoms: _85  and  _86
REMARK   38  A    between atoms: _91  and  _93
REMARK   39  A    between atoms: _93  and  _94
REMARK   40  A    between atoms: _93  and  _96
REMARK   41  A    between atoms: _96  and  _97
REMARK   42  A    between atoms: _102  and  _103
REMARK   43  A    between atoms: _105  and  _107
REMARK   44  A    between atoms: _107  and  _108
REMARK   45  A    between atoms: _107  and  _110
REMARK   46  A    between atoms: _110  and  _111
REMARK   47  A    between atoms: _111  and  _112
REMARK   48  A    between atoms: _115  and  _117
REMARK   49  A    between atoms: _117  and  _118
REMARK   50  A    between atoms: _117  and  _120
REMARK   51  A    between atoms: _120  and  _121
REMARK   52  A    between atoms: _132  and  _133
REMARK   53  A    between atoms: _138  and  _140
REMARK   54  A    between atoms: _140  and  _141
REMARK   55  A    between atoms: _140  and  _143
REMARK   56  A    between atoms: _143  and  _144
REMARK   57  A    between atoms: _147  and  _148
REMARK   58  A    between atoms: _153  and  _155
REMARK   59  A    between atoms: _155  and  _156
REMARK   60  A    between atoms: _158  and  _160
REMARK   61  A    between atoms: _160  and  _161
REMARK   62  A    between atoms: _164  and  _166
REMARK   63  A    between atoms: _166  and  _167
REMARK   64  A    between atoms: _166  and  _169
REMARK   65  A    between atoms: _169  and  _170
REMARK   66  A    between atoms: _173  and  _175
REMARK   67  A    between atoms: _175  and  _176
REMARK   68  A    between atoms: _175  and  _178
REMARK   69  A    between atoms: _178  and  _179
REMARK   70  A    between atoms: _180  and  _181
REMARK   71  A    between atoms: _190  and  _192
REMARK   72  A    between atoms: _192  and  _193
REMARK   73  A    between atoms: _192  and  _195
REMARK   74  A    between atoms: _195  and  _196
REMARK   75  A    between atoms: _199  and  _201
REMARK   76  A    between atoms: _201  and  _202
REMARK   77  A    between atoms: _201  and  _204
REMARK   78  A    between atoms: _204  and  _205
REMARK   79  A    between atoms: _208  and  _210
REMARK   80  A    between atoms: _210  and  _211
REMARK   81  A    between atoms: _210  and  _213
REMARK   82  A    between atoms: _213  and  _214
REMARK   83  A    between atoms: _219  and  _221
REMARK   84  A    between atoms: _221  and  _222
REMARK   85  A    between atoms: _221  and  _224
REMARK   86  A    between atoms: _224  and  _225
REMARK   87  A    between atoms: _228  and  _230
REMARK   88  A    between atoms: _230  and  _231
REMARK   89  A    between atoms: _233  and  _235
REMARK   90  A    between atoms: _235  and  _236
REMARK   91  A    between atoms: _239  and  _241
REMARK   92  A    between atoms: _241  and  _242
REMARK   93  A    between atoms: _241  and  _244
REMARK   94  A    between atoms: _244  and  _245
REMARK   95  A    between atoms: _247  and  _249
REMARK   96  A    between atoms: _249  and  _250
REMARK   97  A    between atoms: _252  and  _254
REMARK   98  A    between atoms: _254  and  _255
REMARK   99  A    between atoms: _254  and  _257
REMARK  100  A    between atoms: _257  and  _258
REMARK  101  A    between atoms: _263  and  _265
REMARK  102  A    between atoms: _265  and  _266
REMARK  103  A    between atoms: _265  and  _268
REMARK  104  A    between atoms: _268  and  _269
REMARK  105  A    between atoms: _274  and  _276
REMARK  106  A    between atoms: _276  and  _277
REMARK  107  A    between atoms: _276  and  _279
REMARK  108  A    between atoms: _279  and  _280
REMARK                            x       y       z     vdW  Elec       q    Type
REMARK                         _______ _______ _______ _____ _____    ______ ____
ROOT
ATOM      1  O   HOH     1      25.692  10.665   1.239  0.00  0.00    +0.000 OA
ENDROOT
TORSDOF 0
REMARK  Name = ../refined-set-2016/6rnt/6rnt_pocket.pdb
REMARK  108 active torsions:
REMARK  status: ('A' for Active; 'I' for Inactive)
REMARK    1  A    between atoms: _1  and  _3
REMARK    2  A    between atoms: _3  and  _4
REMARK    3  A    between atoms: _3  and  _6
REMARK    4  A    between atoms: _6  and  _7
REMARK    5  A    between atoms: _9  and  _11
REMARK    6  A    between atoms: _11  and  _12
REMARK    7  A    between atoms: _11  and  _14
REMARK    8  A    between atoms: _14  and  _15
REMARK    9  A    between atoms: _20  and  _22
REMARK   10  A    between atoms: _22  and  _23
REMARK   11  A    between atoms: _22  and  _25
REMARK   12  A    between atoms: _25  and  _26
REMARK   13  A    between atoms: _28  and  _30
REMARK   14  A    between atoms: _30  and  _31
REMARK   15  A    between atoms: _30  and  _33
REMARK   16  A    between atoms: _33  and  _34
REMARK   17  A    between atoms: _39  and  _40
REMARK   18  A    between atoms: _42  and  _44
REMARK   19  A    between atoms: _44  and  _45
REMARK   20  A    between atoms: _44  and  _47
REMARK   21  A    between atoms: _47  and  _48
REMARK   22  A    between atoms: _53  and  _55
REMARK   23  A    between atoms: _55  and  _56
REMARK   24  A    between atoms: _55  and  _58
REMARK   25  A    between atoms: _58  and  _59
REMARK   26  A    between atoms: _59  and  _60
REMARK   27  A    between atoms: _60  and  _61
REMARK   28  A    between atoms: _61  and  _62
REMARK   29  A    between atoms: _66  and  _68
REMARK   30  A    between atoms: _68  and  _69
REMARK   31  A    between atoms: _68  and  _71
REMARK   32  A    between atoms: _71  and  _72
REMARK   33  A    between atoms: _77  and  _78
REMARK   34  A    between atoms: _80  and  _82
REMARK   35  A    between atoms: _82  and  _83
REMARK   36  A    between atoms: _82  and  _85
REMARK   37  A    between atoms: _85  and  _86
REMARK   38  A    between atoms: _91  and  _93
REMARK   39  A    between atoms: _93  and  _94
REMARK   40  A    between atoms: _93  and  _96
REMARK   41  A    between atoms: _96  and  _97
REMARK   42  A    between atoms: _102  and  _103
REMARK   43  A    between atoms: _105  and  _107
REMARK   44  A    between atoms: _107  and  _108
REMARK   45  A    between atoms: _107  and  _110
REMARK   46  A    between atoms: _110  and  _111
REMARK   47  A    between atoms: _111  and  _112
REMARK   48  A    between atoms: _115  and  _117
REMARK   49  A    between atoms: _117  and  _118
REMARK   50  A    between atoms: _117  and  _120
REMARK   51  A    between atoms: _120  and  _121
REMARK   52  A    between atoms: _132  and  _133
REMARK   53  A    between atoms: _138  and  _140
REMARK   54  A    between atoms: _140  and  _141
REMARK   55  A    between atoms: _140  and  _143
REMARK   56  A    between atoms: _143  and  _144
REMARK   57  A    between atoms: _147  and  _148
REMARK   58  A    between atoms: _153  and  _155
REMARK   59  A    between atoms: _155  and  _156
REMARK   60  A    between atoms: _158  and  _160
REMARK   61  A    between atoms: _160  and  _161
REMARK   62  A    between atoms: _164  and  _166
REMARK   63  A    between atoms: _166  and  _167
REMARK   64  A    between atoms: _166  and  _169
REMARK   65  A    between atoms: _169  and  _170
REMARK   66  A    between atoms: _173  and  _175
REMARK   67  A    between atoms: _175  and  _176
REMARK   68  A    between atoms: _175  and  _178
REMARK   69  A    between atoms: _178  and  _179
REMARK   70  A    between atoms: _180  and  _181
REMARK   71  A    between atoms: _190  and  _192
REMARK   72  A    between atoms: _192  and  _193
REMARK   73  A    between atoms: _192  and  _195
REMARK   74  A    between atoms: _195  and  _196
REMARK   75  A    between atoms: _199  and  _201
REMARK   76  A    between atoms: _201  and  _202
REMARK   77  A    between atoms: _201  and  _204
REMARK   78  A    between atoms: _204  and  _205
REMARK   79  A    between atoms: _208  and  _210
REMARK   80  A    between atoms: _210  and  _211
REMARK   81  A    between atoms: _210  and  _213
REMARK   82  A    between atoms: _213  and  _214
REMARK   83  A    between atoms: _219  and  _221
REMARK   84  A    between atoms: _221  and  _222
REMARK   85  A    between atoms: _221  and  _224
REMARK   86  A    between atoms: _224  and  _225
REMARK   87  A    between atoms: _228  and  _230
REMARK   88  A    between atoms: _230  and  _231
REMARK   89  A    between atoms: _233  and  _235
REMARK   90  A    between atoms: _235  and  _236
REMARK   91  A    between atoms: _239  and  _241
REMARK   92  A    between atoms: _241  and  _242
REMARK   93  A    between atoms: _241  and  _244
REMARK   94  A    between atoms: _244  and  _245
REMARK   95  A    between atoms: _247  and  _249
REMARK   96  A    between atoms: _249  and  _250
REMARK   97  A    between atoms: _252  and  _254
REMARK   98  A    between atoms: _254  and  _255
REMARK   99  A    between atoms: _254  and  _257
REMARK  100  A    between atoms: _257  and  _258
REMARK  101  A    between atoms: _263  and  _265
REMARK  102  A    between atoms: _265  and  _266
REMARK  103  A    between atoms: _265  and  _268
REMARK  104  A    between atoms: _268  and  _269
REMARK  105  A    between atoms: _274  and  _276
REMARK  106  A    between atoms: _276  and  _277
REMARK  107  A    between atoms: _276  and  _279
REMARK  108  A    between atoms: _279  and  _280
REMARK                            x       y       z     vdW  Elec       q    Type
REMARK                         _______ _______ _______ _____ _____    ______ ____
ROOT
ATOM      1  O   HOH     1      26.844  12.808   5.114  0.00  0.00    +0.000 OA
ENDROOT
TORSDOF 0
REMARK  Name = ../refined-set-2016/6rnt/6rnt_pocket.pdb
REMARK  108 active torsions:
REMARK  status: ('A' for Active; 'I' for Inactive)
REMARK    1  A    between atoms: _1  and  _3
REMARK    2  A    between atoms: _3  and  _4
REMARK    3  A    between atoms: _3  and  _6
REMARK    4  A    between atoms: _6  and  _7
REMARK    5  A    between atoms: _9  and  _11
REMARK    6  A    between atoms: _11  and  _12
REMARK    7  A    between atoms: _11  and  _14
REMARK    8  A    between atoms: _14  and  _15
REMARK    9  A    between atoms: _20  and  _22
REMARK   10  A    between atoms: _22  and  _23
REMARK   11  A    between atoms: _22  and  _25
REMARK   12  A    between atoms: _25  and  _26
REMARK   13  A    between atoms: _28  and  _30
REMARK   14  A    between atoms: _30  and  _31
REMARK   15  A    between atoms: _30  and  _33
REMARK   16  A    between atoms: _33  and  _34
REMARK   17  A    between atoms: _39  and  _40
REMARK   18  A    between atoms: _42  and  _44
REMARK   19  A    between atoms: _44  and  _45
REMARK   20  A    between atoms: _44  and  _47
REMARK   21  A    between atoms: _47  and  _48
REMARK   22  A    between atoms: _53  and  _55
REMARK   23  A    between atoms: _55  and  _56
REMARK   24  A    between atoms: _55  and  _58
REMARK   25  A    between atoms: _58  and  _59
REMARK   26  A    between atoms: _59  and  _60
REMARK   27  A    between atoms: _60  and  _61
REMARK   28  A    between atoms: _61  and  _62
REMARK   29  A    between atoms: _66  and  _68
REMARK   30  A    between atoms: _68  and  _69
REMARK   31  A    between atoms: _68  and  _71
REMARK   32  A    between atoms: _71  and  _72
REMARK   33  A    between atoms: _77  and  _78
REMARK   34  A    between atoms: _80  and  _82
REMARK   35  A    between atoms: _82  and  _83
REMARK   36  A    between atoms: _82  and  _85
REMARK   37  A    between atoms: _85  and  _86
REMARK   38  A    between atoms: _91  and  _93
REMARK   39  A    between atoms: _93  and  _94
REMARK   40  A    between atoms: _93  and  _96
REMARK   41  A    between atoms: _96  and  _97
REMARK   42  A    between atoms: _102  and  _103
REMARK   43  A    between atoms: _105  and  _107
REMARK   44  A    between atoms: _107  and  _108
REMARK   45  A    between atoms: _107  and  _110
REMARK   46  A    between atoms: _110  and  _111
REMARK   47  A    between atoms: _111  and  _112
REMARK   48  A    between atoms: _115  and  _117
REMARK   49  A    between atoms: _117  and  _118
REMARK   50  A    between atoms: _117  and  _120
REMARK   51  A    between atoms: _120  and  _121
REMARK   52  A    between atoms: _132  and  _133
REMARK   53  A    between atoms: _138  and  _140
REMARK   54  A    between atoms: _140  and  _141
REMARK   55  A    between atoms: _140  and  _143
REMARK   56  A    between atoms: _143  and  _144
REMARK   57  A    between atoms: _147  and  _148
REMARK   58  A    between atoms: _153  and  _155
REMARK   59  A    between atoms: _155  and  _156
REMARK   60  A    between atoms: _158  and  _160
REMARK   61  A    between atoms: _160  and  _161
REMARK   62  A    between atoms: _164  and  _166
REMARK   63  A    between atoms: _166  and  _167
REMARK   64  A    between atoms: _166  and  _169
REMARK   65  A    between atoms: _169  and  _170
REMARK   66  A    between atoms: _173  and  _175
REMARK   67  A    between atoms: _175  and  _176
REMARK   68  A    between atoms: _175  and  _178
REMARK   69  A    between atoms: _178  and  _179
REMARK   70  A    between atoms: _180  and  _181
REMARK   71  A    between atoms: _190  and  _192
REMARK   72  A    between atoms: _192  and  _193
REMARK   73  A    between atoms: _192  and  _195
REMARK   74  A    between atoms: _195  and  _196
REMARK   75  A    between atoms: _199  and  _201
REMARK   76  A    between atoms: _201  and  _202
REMARK   77  A    between atoms: _201  and  _204
REMARK   78  A    between atoms: _204  and  _205
REMARK   79  A    between atoms: _208  and  _210
REMARK   80  A    between atoms: _210  and  _211
REMARK   81  A    between atoms: _210  and  _213
REMARK   82  A    between atoms: _213  and  _214
REMARK   83  A    between atoms: _219  and  _221
REMARK   84  A    between atoms: _221  and  _222
REMARK   85  A    between atoms: _221  and  _224
REMARK   86  A    between atoms: _224  and  _225
REMARK   87  A    between atoms: _228  and  _230
REMARK   88  A    between atoms: _230  and  _231
REMARK   89  A    between atoms: _233  and  _235
REMARK   90  A    between atoms: _235  and  _236
REMARK   91  A    between atoms: _239  and  _241
REMARK   92  A    between atoms: _241  and  _242
REMARK   93  A    between atoms: _241  and  _244
REMARK   94  A    between atoms: _244  and  _245
REMARK   95  A    between atoms: _247  and  _249
REMARK   96  A    between atoms: _249  and  _250
REMARK   97  A    between atoms: _252  and  _254
REMARK   98  A    between atoms: _254  and  _255
REMARK   99  A    between atoms: _254  and  _257
REMARK  100  A    between atoms: _257  and  _258
REMARK  101  A    between atoms: _263  and  _265
REMARK  102  A    between atoms: _265  and  _266
REMARK  103  A    between atoms: _265  and  _268
REMARK  104  A    between atoms: _268  and  _269
REMARK  105  A    between atoms: _274  and  _276
REMARK  106  A    between atoms: _276  and  _277
REMARK  107  A    between atoms: _276  and  _279
REMARK  108  A    between atoms: _279  and  _280
REMARK                            x       y       z     vdW  Elec       q    Type
REMARK                         _______ _______ _______ _____ _____    ______ ____
ROOT
ATOM      1  O   HOH     1      27.967  11.221   3.223  0.00  0.00    +0.000 OA
ENDROOT
TORSDOF 0
REMARK  Name = ../refined-set-2016/6rnt/6rnt_pocket.pdb
REMARK  108 active torsions:
REMARK  status: ('A' for Active; 'I' for Inactive)
REMARK    1  A    between atoms: _1  and  _3
REMARK    2  A    between atoms: _3  and  _4
REMARK    3  A    between atoms: _3  and  _6
REMARK    4  A    between atoms: _6  and  _7
REMARK    5  A    between atoms: _9  and  _11
REMARK    6  A    between atoms: _11  and  _12
REMARK    7  A    between atoms: _11  and  _14
REMARK    8  A    between atoms: _14  and  _15
REMARK    9  A    between atoms: _20  and  _22
REMARK   10  A    between atoms: _22  and  _23
REMARK   11  A    between atoms: _22  and  _25
REMARK   12  A    between atoms: _25  and  _26
REMARK   13  A    between atoms: _28  and  _30
REMARK   14  A    between atoms: _30  and  _31
REMARK   15  A    between atoms: _30  and  _33
REMARK   16  A    between atoms: _33  and  _34
REMARK   17  A    between atoms: _39  and  _40
REMARK   18  A    between atoms: _42  and  _44
REMARK   19  A    between atoms: _44  and  _45
REMARK   20  A    between atoms: _44  and  _47
REMARK   21  A    between atoms: _47  and  _48
REMARK   22  A    between atoms: _53  and  _55
REMARK   23  A    between atoms: _55  and  _56
REMARK   24  A    between atoms: _55  and  _58
REMARK   25  A    between atoms: _58  and  _59
REMARK   26  A    between atoms: _59  and  _60
REMARK   27  A    between atoms: _60  and  _61
REMARK   28  A    between atoms: _61  and  _62
REMARK   29  A    between atoms: _66  and  _68
REMARK   30  A    between atoms: _68  and  _69
REMARK   31  A    between atoms: _68  and  _71
REMARK   32  A    between atoms: _71  and  _72
REMARK   33  A    between atoms: _77  and  _78
REMARK   34  A    between atoms: _80  and  _82
REMARK   35  A    between atoms: _82  and  _83
REMARK   36  A    between atoms: _82  and  _85
REMARK   37  A    between atoms: _85  and  _86
REMARK   38  A    between atoms: _91  and  _93
REMARK   39  A    between atoms: _93  and  _94
REMARK   40  A    between atoms: _93  and  _96
REMARK   41  A    between atoms: _96  and  _97
REMARK   42  A    between atoms: _102  and  _103
REMARK   43  A    between atoms: _105  and  _107
REMARK   44  A    between atoms: _107  and  _108
REMARK   45  A    between atoms: _107  and  _110
REMARK   46  A    between atoms: _110  and  _111
REMARK   47  A    between atoms: _111  and  _112
REMARK   48  A    between atoms: _115  and  _117
REMARK   49  A    between atoms: _117  and  _118
REMARK   50  A    between atoms: _117  and  _120
REMARK   51  A    between atoms: _120  and  _121
REMARK   52  A    between atoms: _132  and  _133
REMARK   53  A    between atoms: _138  and  _140
REMARK   54  A    between atoms: _140  and  _141
REMARK   55  A    between atoms: _140  and  _143
REMARK   56  A    between atoms: _143  and  _144
REMARK   57  A    between atoms: _147  and  _148
REMARK   58  A    between atoms: _153  and  _155
REMARK   59  A    between atoms: _155  and  _156
REMARK   60  A    between atoms: _158  and  _160
REMARK   61  A    between atoms: _160  and  _161
REMARK   62  A    between atoms: _164  and  _166
REMARK   63  A    between atoms: _166  and  _167
REMARK   64  A    between atoms: _166  and  _169
REMARK   65  A    between atoms: _169  and  _170
REMARK   66  A    between atoms: _173  and  _175
REMARK   67  A    between atoms: _175  and  _176
REMARK   68  A    between atoms: _175  and  _178
REMARK   69  A    between atoms: _178  and  _179
REMARK   70  A    between atoms: _180  and  _181
REMARK   71  A    between atoms: _190  and  _192
REMARK   72  A    between atoms: _192  and  _193
REMARK   73  A    between atoms: _192  and  _195
REMARK   74  A    between atoms: _195  and  _196
REMARK   75  A    between atoms: _199  and  _201
REMARK   76  A    between atoms: _201  and  _202
REMARK   77  A    between atoms: _201  and  _204
REMARK   78  A    between atoms: _204  and  _205
REMARK   79  A    between atoms: _208  and  _210
REMARK   80  A    between atoms: _210  and  _211
REMARK   81  A    between atoms: _210  and  _213
REMARK   82  A    between atoms: _213  and  _214
REMARK   83  A    between atoms: _219  and  _221
REMARK   84  A    between atoms: _221  and  _222
REMARK   85  A    between atoms: _221  and  _224
REMARK   86  A    between atoms: _224  and  _225
REMARK   87  A    between atoms: _228  and  _230
REMARK   88  A    between atoms: _230  and  _231
REMARK   89  A    between atoms: _233  and  _235
REMARK   90  A    between atoms: _235  and  _236
REMARK   91  A    between atoms: _239  and  _241
REMARK   92  A    between atoms: _241  and  _242
REMARK   93  A    between atoms: _241  and  _244
REMARK   94  A    between atoms: _244  and  _245
REMARK   95  A    between atoms: _247  and  _249
REMARK   96  A    between atoms: _249  and  _250
REMARK   97  A    between atoms: _252  and  _254
REMARK   98  A    between atoms: _254  and  _255
REMARK   99  A    between atoms: _254  and  _257
REMARK  100  A    between atoms: _257  and  _258
REMARK  101  A    between atoms: _263  and  _265
REMARK  102  A    between atoms: _265  and  _266
REMARK  103  A    between atoms: _265  and  _268
REMARK  104  A    between atoms: _268  and  _269
REMARK  105  A    between atoms: _274  and  _276
REMARK  106  A    between atoms: _276  and  _277
REMARK  107  A    between atoms: _276  and  _279
REMARK  108  A    between atoms: _279  and  _280
REMARK                            x       y       z     vdW  Elec       q    Type
REMARK                         _______ _______ _______ _____ _____    ______ ____
ROOT
ATOM      1  O   HOH     1      22.645  12.205  -7.519  0.00  0.00    +0.000 OA
ENDROOT
TORSDOF 0
