REMARK  Name = ../refined-set-2016/1ec2/1ec2_pocket.pdb
REMARK  229 active torsions:
REMARK  status: ('A' for Active; 'I' for Inactive)
REMARK    1  A    between atoms: _1  and  _3
REMARK    2  A    between atoms: _3  and  _4
REMARK    3  A    between atoms: _3  and  _6
REMARK    4  A    between atoms: _6  and  _7
REMARK    5  A    between atoms: _7  and  _8
REMARK    6  A    between atoms: _8  and  _9
REMARK    7  A    between atoms: _18  and  _20
REMARK    8  A    between atoms: _20  and  _21
REMARK    9  A    between atoms: _20  and  _23
REMARK   10  A    between atoms: _23  and  _24
REMARK   11  A    between atoms: _27  and  _29
REMARK   12  A    between atoms: _29  and  _30
REMARK   13  A    between atoms: _29  and  _32
REMARK   14  A    between atoms: _32  and  _33
REMARK   15  A    between atoms: _36  and  _38
REMARK   16  A    between atoms: _38  and  _39
REMARK   17  A    between atoms: _38  and  _41
REMARK   18  A    between atoms: _41  and  _42
REMARK   19  A    between atoms: _45  and  _47
REMARK   20  A    between atoms: _47  and  _48
REMARK   21  A    between atoms: _47  and  _50
REMARK   22  A    between atoms: _50  and  _51
REMARK   23  A    between atoms: _54  and  _56
REMARK   24  A    between atoms: _56  and  _57
REMARK   25  A    between atoms: _59  and  _61
REMARK   26  A    between atoms: _61  and  _62
REMARK   27  A    between atoms: _65  and  _67
REMARK   28  A    between atoms: _67  and  _68
REMARK   29  A    between atoms: _67  and  _70
REMARK   30  A    between atoms: _70  and  _71
REMARK   31  A    between atoms: _74  and  _76
REMARK   32  A    between atoms: _76  and  _77
REMARK   33  A    between atoms: _76  and  _79
REMARK   34  A    between atoms: _79  and  _80
REMARK   35  A    between atoms: _83  and  _85
REMARK   36  A    between atoms: _85  and  _86
REMARK   37  A    between atoms: _85  and  _88
REMARK   38  A    between atoms: _88  and  _89
REMARK   39  A    between atoms: _92  and  _94
REMARK   40  A    between atoms: _94  and  _95
REMARK   41  A    between atoms: _94  and  _97
REMARK   42  A    between atoms: _100  and  _102
REMARK   43  A    between atoms: _102  and  _103
REMARK   44  A    between atoms: _102  and  _105
REMARK   45  A    between atoms: _105  and  _106
REMARK   46  A    between atoms: _106  and  _107
REMARK   47  A    between atoms: _107  and  _108
REMARK   48  A    between atoms: _108  and  _109
REMARK   49  A    between atoms: _113  and  _115
REMARK   50  A    between atoms: _115  and  _116
REMARK   51  A    between atoms: _115  and  _118
REMARK   52  A    between atoms: _118  and  _119
REMARK   53  A    between atoms: _119  and  _120
REMARK   54  A    between atoms: _122  and  _124
REMARK   55  A    between atoms: _124  and  _125
REMARK   56  A    between atoms: _124  and  _127
REMARK   57  A    between atoms: _127  and  _128
REMARK   58  A    between atoms: _131  and  _133
REMARK   59  A    between atoms: _133  and  _134
REMARK   60  A    between atoms: _136  and  _138
REMARK   61  A    between atoms: _138  and  _139
REMARK   62  A    between atoms: _141  and  _143
REMARK   63  A    between atoms: _143  and  _144
REMARK   64  A    between atoms: _143  and  _146
REMARK   65  A    between atoms: _146  and  _147
REMARK   66  A    between atoms: _150  and  _152
REMARK   67  A    between atoms: _152  and  _153
REMARK   68  A    between atoms: _155  and  _157
REMARK   69  A    between atoms: _157  and  _158
REMARK   70  A    between atoms: _160  and  _162
REMARK   71  A    between atoms: _162  and  _163
REMARK   72  A    between atoms: _162  and  _165
REMARK   73  A    between atoms: _165  and  _166
REMARK   74  A    between atoms: _172  and  _174
REMARK   75  A    between atoms: _174  and  _175
REMARK   76  A    between atoms: _174  and  _177
REMARK   77  A    between atoms: _177  and  _178
REMARK   78  A    between atoms: _181  and  _183
REMARK   79  A    between atoms: _183  and  _184
REMARK   80  A    between atoms: _183  and  _186
REMARK   81  A    between atoms: _189  and  _191
REMARK   82  A    between atoms: _191  and  _192
REMARK   83  A    between atoms: _191  and  _194
REMARK   84  A    between atoms: _194  and  _195
REMARK   85  A    between atoms: _198  and  _200
REMARK   86  A    between atoms: _200  and  _201
REMARK   87  A    between atoms: _200  and  _203
REMARK   88  A    between atoms: _203  and  _204
REMARK   89  A    between atoms: _208  and  _209
REMARK   90  A    between atoms: _214  and  _216
REMARK   91  A    between atoms: _216  and  _217
REMARK   92  A    between atoms: _216  and  _219
REMARK   93  A    between atoms: _222  and  _224
REMARK   94  A    between atoms: _224  and  _225
REMARK   95  A    between atoms: _224  and  _227
REMARK   96  A    between atoms: _227  and  _228
REMARK   97  A    between atoms: _233  and  _235
REMARK   98  A    between atoms: _235  and  _236
REMARK   99  A    between atoms: _235  and  _238
REMARK  100  A    between atoms: _238  and  _239
REMARK  101  A    between atoms: _242  and  _244
REMARK  102  A    between atoms: _244  and  _245
REMARK  103  A    between atoms: _244  and  _247
REMARK  104  A    between atoms: _247  and  _248
REMARK  105  A    between atoms: _251  and  _253
REMARK  106  A    between atoms: _253  and  _254
REMARK  107  A    between atoms: _256  and  _258
REMARK  108  A    between atoms: _258  and  _259
REMARK  109  A    between atoms: _258  and  _261
REMARK  110  A    between atoms: _261  and  _262
REMARK  111  A    between atoms: _262  and  _263
REMARK  112  A    between atoms: _263  and  _264
REMARK  113  A    between atoms: _273  and  _275
REMARK  114  A    between atoms: _275  and  _276
REMARK  115  A    between atoms: _275  and  _278
REMARK  116  A    between atoms: _278  and  _279
REMARK  117  A    between atoms: _279  and  _280
REMARK  118  A    between atoms: _280  and  _281
REMARK  119  A    between atoms: _290  and  _292
REMARK  120  A    between atoms: _292  and  _293
REMARK  121  A    between atoms: _292  and  _295
REMARK  122  A    between atoms: _295  and  _296
REMARK  123  A    between atoms: _299  and  _301
REMARK  124  A    between atoms: _301  and  _302
REMARK  125  A    between atoms: _301  and  _304
REMARK  126  A    between atoms: _304  and  _305
REMARK  127  A    between atoms: _308  and  _310
REMARK  128  A    between atoms: _310  and  _311
REMARK  129  A    between atoms: _310  and  _313
REMARK  130  A    between atoms: _313  and  _314
REMARK  131  A    between atoms: _317  and  _319
REMARK  132  A    between atoms: _319  and  _320
REMARK  133  A    between atoms: _319  and  _322
REMARK  134  A    between atoms: _322  and  _323
REMARK  135  A    between atoms: _326  and  _328
REMARK  136  A    between atoms: _328  and  _329
REMARK  137  A    between atoms: _328  and  _331
REMARK  138  A    between atoms: _331  and  _332
REMARK  139  A    between atoms: _335  and  _337
REMARK  140  A    between atoms: _337  and  _338
REMARK  141  A    between atoms: _340  and  _342
REMARK  142  A    between atoms: _342  and  _343
REMARK  143  A    between atoms: _346  and  _348
REMARK  144  A    between atoms: _348  and  _349
REMARK  145  A    between atoms: _348  and  _351
REMARK  146  A    between atoms: _351  and  _352
REMARK  147  A    between atoms: _355  and  _357
REMARK  148  A    between atoms: _357  and  _358
REMARK  149  A    between atoms: _357  and  _360
REMARK  150  A    between atoms: _360  and  _361
REMARK  151  A    between atoms: _364  and  _366
REMARK  152  A    between atoms: _366  and  _367
REMARK  153  A    between atoms: _366  and  _369
REMARK  154  A    between atoms: _369  and  _370
REMARK  155  A    between atoms: _373  and  _375
REMARK  156  A    between atoms: _375  and  _376
REMARK  157  A    between atoms: _375  and  _378
REMARK  158  A    between atoms: _381  and  _383
REMARK  159  A    between atoms: _383  and  _384
REMARK  160  A    between atoms: _383  and  _386
REMARK  161  A    between atoms: _386  and  _387
REMARK  162  A    between atoms: _387  and  _388
REMARK  163  A    between atoms: _388  and  _389
REMARK  164  A    between atoms: _389  and  _390
REMARK  165  A    between atoms: _394  and  _396
REMARK  166  A    between atoms: _396  and  _397
REMARK  167  A    between atoms: _396  and  _399
REMARK  168  A    between atoms: _399  and  _400
REMARK  169  A    between atoms: _400  and  _401
REMARK  170  A    between atoms: _403  and  _405
REMARK  171  A    between atoms: _405  and  _406
REMARK  172  A    between atoms: _405  and  _408
REMARK  173  A    between atoms: _408  and  _409
REMARK  174  A    between atoms: _412  and  _414
REMARK  175  A    between atoms: _414  and  _415
REMARK  176  A    between atoms: _417  and  _419
REMARK  177  A    between atoms: _419  and  _420
REMARK  178  A    between atoms: _422  and  _424
REMARK  179  A    between atoms: _424  and  _425
REMARK  180  A    between atoms: _424  and  _427
REMARK  181  A    between atoms: _427  and  _428
REMARK  182  A    between atoms: _431  and  _433
REMARK  183  A    between atoms: _433  and  _434
REMARK  184  A    between atoms: _436  and  _438
REMARK  185  A    between atoms: _438  and  _439
REMARK  186  A    between atoms: _441  and  _443
REMARK  187  A    between atoms: _443  and  _444
REMARK  188  A    between atoms: _443  and  _446
REMARK  189  A    between atoms: _446  and  _447
REMARK  190  A    between atoms: _453  and  _455
REMARK  191  A    between atoms: _455  and  _456
REMARK  192  A    between atoms: _455  and  _458
REMARK  193  A    between atoms: _458  and  _459
REMARK  194  A    between atoms: _462  and  _464
REMARK  195  A    between atoms: _464  and  _465
REMARK  196  A    between atoms: _464  and  _467
REMARK  197  A    between atoms: _470  and  _472
REMARK  198  A    between atoms: _472  and  _473
REMARK  199  A    between atoms: _472  and  _475
REMARK  200  A    between atoms: _475  and  _476
REMARK  201  A    between atoms: _480  and  _481
REMARK  202  A    between atoms: _486  and  _488
REMARK  203  A    between atoms: _488  and  _489
REMARK  204  A    between atoms: _488  and  _491
REMARK  205  A    between atoms: _491  and  _492
REMARK  206  A    between atoms: _496  and  _497
REMARK  207  A    between atoms: _502  and  _504
REMARK  208  A    between atoms: _504  and  _505
REMARK  209  A    between atoms: _504  and  _507
REMARK  210  A    between atoms: _510  and  _512
REMARK  211  A    between atoms: _512  and  _513
REMARK  212  A    between atoms: _512  and  _515
REMARK  213  A    between atoms: _515  and  _516
REMARK  214  A    between atoms: _521  and  _523
REMARK  215  A    between atoms: _523  and  _524
REMARK  216  A    between atoms: _523  and  _526
REMARK  217  A    between atoms: _526  and  _527
REMARK  218  A    between atoms: _530  and  _532
REMARK  219  A    between atoms: _532  and  _533
REMARK  220  A    between atoms: _532  and  _535
REMARK  221  A    between atoms: _535  and  _536
REMARK  222  A    between atoms: _539  and  _541
REMARK  223  A    between atoms: _541  and  _542
REMARK  224  A    between atoms: _544  and  _546
REMARK  225  A    between atoms: _546  and  _547
REMARK  226  A    between atoms: _546  and  _549
REMARK  227  A    between atoms: _549  and  _550
REMARK  228  A    between atoms: _550  and  _551
REMARK  229  A    between atoms: _551  and  _552
REMARK                            x       y       z     vdW  Elec       q    Type
REMARK                         _______ _______ _______ _____ _____    ______ ____
ROOT
ATOM      1  NE  ARG A   1      23.449  20.700   7.701  0.00  0.00    -0.265 N 
ATOM      2  CZ  ARG A   1      23.111  19.732   8.549  0.00  0.00    +0.342 C 
ATOM      3  NH2 ARG A   1      23.195  19.934   9.856  0.00  0.00    -0.292 N 
ATOM      4 HH21 ARG A   1      22.930  19.176  10.517  0.00  0.00    +0.255 HD
ATOM      5 HH22 ARG A   1      23.526  20.850  10.220  0.00  0.00    +0.255 HD
ATOM      6  NH1 ARG A   1      22.696  18.556   8.095  0.00  0.00    -0.292 N 
ATOM      7 HH11 ARG A   1      22.433  17.804   8.763  0.00  0.00    +0.255 HD
ATOM      8 HH12 ARG A   1      22.633  18.387   7.071  0.00  0.00    +0.255 HD
ATOM      9  HE  ARG A   1      23.372  20.505   6.682  0.00  0.00    +0.259 HD
ENDROOT
BRANCH   1  10
ATOM     10  CD  ARG A   1      23.923  22.023   8.114  0.00  0.00    +0.174 C 
BRANCH  10  11
ATOM     11  CG  ARG A   1      24.502  22.820   6.949  0.00  0.00    +0.045 C 
BRANCH  11  12
ATOM     12  CB  ARG A   1      25.026  24.182   7.402  0.00  0.00    +0.029 C 
BRANCH  12  13
ATOM     13  CA  ARG A   1      25.682  24.997   6.282  0.00  0.00    +0.133 C 
BRANCH  13  14
ATOM     14  N   ARG A   1      26.926  24.369   5.856  0.00  0.00    -0.239 NA
ATOM     15  H   ARG A   1      27.226  23.475   6.295  0.00  0.00    +0.142 HD
ENDBRANCH  13  14
BRANCH  13  16
ATOM     16  C   ARG A   1      26.003  26.410   6.771  0.00  0.00    +0.224 C 
ATOM     17  O   ARG A   1      26.974  26.615   7.498  0.00  0.00    -0.287 OA
ENDBRANCH  13  16
ENDBRANCH  12  13
ENDBRANCH  11  12
ENDBRANCH  10  11
ENDBRANCH   1  10
TORSDOF 6
REMARK  Name = ../refined-set-2016/1ec2/1ec2_pocket.pdb
REMARK  229 active torsions:
REMARK  status: ('A' for Active; 'I' for Inactive)
REMARK    1  A    between atoms: _1  and  _3
REMARK    2  A    between atoms: _3  and  _4
REMARK    3  A    between atoms: _3  and  _6
REMARK    4  A    between atoms: _6  and  _7
REMARK    5  A    between atoms: _7  and  _8
REMARK    6  A    between atoms: _8  and  _9
REMARK    7  A    between atoms: _18  and  _20
REMARK    8  A    between atoms: _20  and  _21
REMARK    9  A    between atoms: _20  and  _23
REMARK   10  A    between atoms: _23  and  _24
REMARK   11  A    between atoms: _27  and  _29
REMARK   12  A    between atoms: _29  and  _30
REMARK   13  A    between atoms: _29  and  _32
REMARK   14  A    between atoms: _32  and  _33
REMARK   15  A    between atoms: _36  and  _38
REMARK   16  A    between atoms: _38  and  _39
REMARK   17  A    between atoms: _38  and  _41
REMARK   18  A    between atoms: _41  and  _42
REMARK   19  A    between atoms: _45  and  _47
REMARK   20  A    between atoms: _47  and  _48
REMARK   21  A    between atoms: _47  and  _50
REMARK   22  A    between atoms: _50  and  _51
REMARK   23  A    between atoms: _54  and  _56
REMARK   24  A    between atoms: _56  and  _57
REMARK   25  A    between atoms: _59  and  _61
REMARK   26  A    between atoms: _61  and  _62
REMARK   27  A    between atoms: _65  and  _67
REMARK   28  A    between atoms: _67  and  _68
REMARK   29  A    between atoms: _67  and  _70
REMARK   30  A    between atoms: _70  and  _71
REMARK   31  A    between atoms: _74  and  _76
REMARK   32  A    between atoms: _76  and  _77
REMARK   33  A    between atoms: _76  and  _79
REMARK   34  A    between atoms: _79  and  _80
REMARK   35  A    between atoms: _83  and  _85
REMARK   36  A    between atoms: _85  and  _86
REMARK   37  A    between atoms: _85  and  _88
REMARK   38  A    between atoms: _88  and  _89
REMARK   39  A    between atoms: _92  and  _94
REMARK   40  A    between atoms: _94  and  _95
REMARK   41  A    between atoms: _94  and  _97
REMARK   42  A    between atoms: _100  and  _102
REMARK   43  A    between atoms: _102  and  _103
REMARK   44  A    between atoms: _102  and  _105
REMARK   45  A    between atoms: _105  and  _106
REMARK   46  A    between atoms: _106  and  _107
REMARK   47  A    between atoms: _107  and  _108
REMARK   48  A    between atoms: _108  and  _109
REMARK   49  A    between atoms: _113  and  _115
REMARK   50  A    between atoms: _115  and  _116
REMARK   51  A    between atoms: _115  and  _118
REMARK   52  A    between atoms: _118  and  _119
REMARK   53  A    between atoms: _119  and  _120
REMARK   54  A    between atoms: _122  and  _124
REMARK   55  A    between atoms: _124  and  _125
REMARK   56  A    between atoms: _124  and  _127
REMARK   57  A    between atoms: _127  and  _128
REMARK   58  A    between atoms: _131  and  _133
REMARK   59  A    between atoms: _133  and  _134
REMARK   60  A    between atoms: _136  and  _138
REMARK   61  A    between atoms: _138  and  _139
REMARK   62  A    between atoms: _141  and  _143
REMARK   63  A    between atoms: _143  and  _144
REMARK   64  A    between atoms: _143  and  _146
REMARK   65  A    between atoms: _146  and  _147
REMARK   66  A    between atoms: _150  and  _152
REMARK   67  A    between atoms: _152  and  _153
REMARK   68  A    between atoms: _155  and  _157
REMARK   69  A    between atoms: _157  and  _158
REMARK   70  A    between atoms: _160  and  _162
REMARK   71  A    between atoms: _162  and  _163
REMARK   72  A    between atoms: _162  and  _165
REMARK   73  A    between atoms: _165  and  _166
REMARK   74  A    between atoms: _172  and  _174
REMARK   75  A    between atoms: _174  and  _175
REMARK   76  A    between atoms: _174  and  _177
REMARK   77  A    between atoms: _177  and  _178
REMARK   78  A    between atoms: _181  and  _183
REMARK   79  A    between atoms: _183  and  _184
REMARK   80  A    between atoms: _183  and  _186
REMARK   81  A    between atoms: _189  and  _191
REMARK   82  A    between atoms: _191  and  _192
REMARK   83  A    between atoms: _191  and  _194
REMARK   84  A    between atoms: _194  and  _195
REMARK   85  A    between atoms: _198  and  _200
REMARK   86  A    between atoms: _200  and  _201
REMARK   87  A    between atoms: _200  and  _203
REMARK   88  A    between atoms: _203  and  _204
REMARK   89  A    between atoms: _208  and  _209
REMARK   90  A    between atoms: _214  and  _216
REMARK   91  A    between atoms: _216  and  _217
REMARK   92  A    between atoms: _216  and  _219
REMARK   93  A    between atoms: _222  and  _224
REMARK   94  A    between atoms: _224  and  _225
REMARK   95  A    between atoms: _224  and  _227
REMARK   96  A    between atoms: _227  and  _228
REMARK   97  A    between atoms: _233  and  _235
REMARK   98  A    between atoms: _235  and  _236
REMARK   99  A    between atoms: _235  and  _238
REMARK  100  A    between atoms: _238  and  _239
REMARK  101  A    between atoms: _242  and  _244
REMARK  102  A    between atoms: _244  and  _245
REMARK  103  A    between atoms: _244  and  _247
REMARK  104  A    between atoms: _247  and  _248
REMARK  105  A    between atoms: _251  and  _253
REMARK  106  A    between atoms: _253  and  _254
REMARK  107  A    between atoms: _256  and  _258
REMARK  108  A    between atoms: _258  and  _259
REMARK  109  A    between atoms: _258  and  _261
REMARK  110  A    between atoms: _261  and  _262
REMARK  111  A    between atoms: _262  and  _263
REMARK  112  A    between atoms: _263  and  _264
REMARK  113  A    between atoms: _273  and  _275
REMARK  114  A    between atoms: _275  and  _276
REMARK  115  A    between atoms: _275  and  _278
REMARK  116  A    between atoms: _278  and  _279
REMARK  117  A    between atoms: _279  and  _280
REMARK  118  A    between atoms: _280  and  _281
REMARK  119  A    between atoms: _290  and  _292
REMARK  120  A    between atoms: _292  and  _293
REMARK  121  A    between atoms: _292  and  _295
REMARK  122  A    between atoms: _295  and  _296
REMARK  123  A    between atoms: _299  and  _301
REMARK  124  A    between atoms: _301  and  _302
REMARK  125  A    between atoms: _301  and  _304
REMARK  126  A    between atoms: _304  and  _305
REMARK  127  A    between atoms: _308  and  _310
REMARK  128  A    between atoms: _310  and  _311
REMARK  129  A    between atoms: _310  and  _313
REMARK  130  A    between atoms: _313  and  _314
REMARK  131  A    between atoms: _317  and  _319
REMARK  132  A    between atoms: _319  and  _320
REMARK  133  A    between atoms: _319  and  _322
REMARK  134  A    between atoms: _322  and  _323
REMARK  135  A    between atoms: _326  and  _328
REMARK  136  A    between atoms: _328  and  _329
REMARK  137  A    between atoms: _328  and  _331
REMARK  138  A    between atoms: _331  and  _332
REMARK  139  A    between atoms: _335  and  _337
REMARK  140  A    between atoms: _337  and  _338
REMARK  141  A    between atoms: _340  and  _342
REMARK  142  A    between atoms: _342  and  _343
REMARK  143  A    between atoms: _346  and  _348
REMARK  144  A    between atoms: _348  and  _349
REMARK  145  A    between atoms: _348  and  _351
REMARK  146  A    between atoms: _351  and  _352
REMARK  147  A    between atoms: _355  and  _357
REMARK  148  A    between atoms: _357  and  _358
REMARK  149  A    between atoms: _357  and  _360
REMARK  150  A    between atoms: _360  and  _361
REMARK  151  A    between atoms: _364  and  _366
REMARK  152  A    between atoms: _366  and  _367
REMARK  153  A    between atoms: _366  and  _369
REMARK  154  A    between atoms: _369  and  _370
REMARK  155  A    between atoms: _373  and  _375
REMARK  156  A    between atoms: _375  and  _376
REMARK  157  A    between atoms: _375  and  _378
REMARK  158  A    between atoms: _381  and  _383
REMARK  159  A    between atoms: _383  and  _384
REMARK  160  A    between atoms: _383  and  _386
REMARK  161  A    between atoms: _386  and  _387
REMARK  162  A    between atoms: _387  and  _388
REMARK  163  A    between atoms: _388  and  _389
REMARK  164  A    between atoms: _389  and  _390
REMARK  165  A    between atoms: _394  and  _396
REMARK  166  A    between atoms: _396  and  _397
REMARK  167  A    between atoms: _396  and  _399
REMARK  168  A    between atoms: _399  and  _400
REMARK  169  A    between atoms: _400  and  _401
REMARK  170  A    between atoms: _403  and  _405
REMARK  171  A    between atoms: _405  and  _406
REMARK  172  A    between atoms: _405  and  _408
REMARK  173  A    between atoms: _408  and  _409
REMARK  174  A    between atoms: _412  and  _414
REMARK  175  A    between atoms: _414  and  _415
REMARK  176  A    between atoms: _417  and  _419
REMARK  177  A    between atoms: _419  and  _420
REMARK  178  A    between atoms: _422  and  _424
REMARK  179  A    between atoms: _424  and  _425
REMARK  180  A    between atoms: _424  and  _427
REMARK  181  A    between atoms: _427  and  _428
REMARK  182  A    between atoms: _431  and  _433
REMARK  183  A    between atoms: _433  and  _434
REMARK  184  A    between atoms: _436  and  _438
REMARK  185  A    between atoms: _438  and  _439
REMARK  186  A    between atoms: _441  and  _443
REMARK  187  A    between atoms: _443  and  _444
REMARK  188  A    between atoms: _443  and  _446
REMARK  189  A    between atoms: _446  and  _447
REMARK  190  A    between atoms: _453  and  _455
REMARK  191  A    between atoms: _455  and  _456
REMARK  192  A    between atoms: _455  and  _458
REMARK  193  A    between atoms: _458  and  _459
REMARK  194  A    between atoms: _462  and  _464
REMARK  195  A    between atoms: _464  and  _465
REMARK  196  A    between atoms: _464  and  _467
REMARK  197  A    between atoms: _470  and  _472
REMARK  198  A    between atoms: _472  and  _473
REMARK  199  A    between atoms: _472  and  _475
REMARK  200  A    between atoms: _475  and  _476
REMARK  201  A    between atoms: _480  and  _481
REMARK  202  A    between atoms: _486  and  _488
REMARK  203  A    between atoms: _488  and  _489
REMARK  204  A    between atoms: _488  and  _491
REMARK  205  A    between atoms: _491  and  _492
REMARK  206  A    between atoms: _496  and  _497
REMARK  207  A    between atoms: _502  and  _504
REMARK  208  A    between atoms: _504  and  _505
REMARK  209  A    between atoms: _504  and  _507
REMARK  210  A    between atoms: _510  and  _512
REMARK  211  A    between atoms: _512  and  _513
REMARK  212  A    between atoms: _512  and  _515
REMARK  213  A    between atoms: _515  and  _516
REMARK  214  A    between atoms: _521  and  _523
REMARK  215  A    between atoms: _523  and  _524
REMARK  216  A    between atoms: _523  and  _526
REMARK  217  A    between atoms: _526  and  _527
REMARK  218  A    between atoms: _530  and  _532
REMARK  219  A    between atoms: _532  and  _533
REMARK  220  A    between atoms: _532  and  _535
REMARK  221  A    between atoms: _535  and  _536
REMARK  222  A    between atoms: _539  and  _541
REMARK  223  A    between atoms: _541  and  _542
REMARK  224  A    between atoms: _544  and  _546
REMARK  225  A    between atoms: _546  and  _547
REMARK  226  A    between atoms: _546  and  _549
REMARK  227  A    between atoms: _549  and  _550
REMARK  228  A    between atoms: _550  and  _551
REMARK  229  A    between atoms: _551  and  _552
REMARK                            x       y       z     vdW  Elec       q    Type
REMARK                         _______ _______ _______ _____ _____    ______ ____
ROOT
ATOM      1  C   GLY A   5      12.711  28.538   3.256  0.00  0.00    +0.243 C 
ATOM      2  N   ALA A   6      12.952  29.287   4.327  0.00  0.00    -0.297 N 
ATOM      3  H   ALA A   6      13.845  29.817   4.386  0.00  0.00    +0.150 HD
ATOM      4  O   GLY A   5      11.666  27.882   3.117  0.00  0.00    -0.273 OA
ENDROOT
BRANCH   2   5
ATOM      5  CA  ALA A   6      11.989  29.382   5.425  0.00  0.00    +0.149 C 
ATOM      6  CB  ALA A   6      12.702  29.141   6.768  0.00  0.00    +0.031 C 
BRANCH   5   7
ATOM      7  C   ALA A   6      11.270  30.725   5.463  0.00  0.00    +0.241 C 
ATOM      8  O   ALA A   6      11.910  31.774   5.531  0.00  0.00    -0.273 OA
ATOM      9  N   ASP A   7       9.939  30.697   5.428  0.00  0.00    -0.297 N 
ATOM     10  H   ASP A   7       9.441  29.786   5.368  0.00  0.00    +0.150 HD
BRANCH   9  11
ATOM     11  CA  ASP A   7       9.176  31.943   5.474  0.00  0.00    +0.160 C 
BRANCH  11  12
ATOM     12  C   ASP A   7       9.295  32.557   6.862  0.00  0.00    +0.241 C 
ATOM     13  N   ASP A   8       9.404  31.699   7.876  0.00  0.00    -0.297 N 
ATOM     14  H   ASP A   8       9.445  30.680   7.674  0.00  0.00    +0.150 HD
ATOM     15  O   ASP A   7       9.273  33.775   7.011  0.00  0.00    -0.273 OA
BRANCH  13  16
ATOM     16  CA  ASP A   8       9.467  32.153   9.264  0.00  0.00    +0.160 C 
BRANCH  16  17
ATOM     17  C   ASP A   8      10.739  31.772  10.007  0.00  0.00    +0.241 C 
ATOM     18  N   THR A   9      10.891  32.362  11.186  0.00  0.00    -0.295 N 
ATOM     19  H   THR A   9      10.166  33.038  11.499  0.00  0.00    +0.150 HD
ATOM     20  O   ASP A   8      11.550  30.972   9.533  0.00  0.00    -0.273 OA
BRANCH  18  21
ATOM     21  CA  THR A   9      12.025  32.107  12.061  0.00  0.00    +0.176 C 
BRANCH  21  22
ATOM     22  C   THR A   9      11.538  31.182  13.176  0.00  0.00    +0.243 C 
ATOM     23  O   THR A   9      10.556  31.481  13.863  0.00  0.00    -0.273 OA
ATOM     24  N   VAL A  10      12.216  30.053  13.347  0.00  0.00    -0.298 N 
ATOM     25  H   VAL A  10      13.041  29.854  12.746  0.00  0.00    +0.150 HD
BRANCH  24  26
ATOM     26  CA  VAL A  10      11.821  29.091  14.364  0.00  0.00    +0.137 C 
BRANCH  26  27
ATOM     27  CB  VAL A  10      11.162  27.852  13.715  0.00  0.00    +0.026 C 
ATOM     28  CG2 VAL A  10      10.859  26.794  14.770  0.00  0.00    +0.002 C 
ATOM     29  CG1 VAL A  10      12.064  27.296  12.646  0.00  0.00    +0.002 C 
ENDBRANCH  26  27
BRANCH  26  30
ATOM     30  C   VAL A  10      13.012  28.665  15.205  0.00  0.00    +0.227 C 
ATOM     31  O   VAL A  10      14.037  28.223  14.678  0.00  0.00    -0.286 OA
ENDBRANCH  26  30
ENDBRANCH  24  26
ENDBRANCH  21  22
BRANCH  21  32
ATOM     32  CB  THR A   9      12.542  33.422  12.668  0.00  0.00    +0.137 C 
ATOM     33  CG2 THR A   9      13.553  33.148  13.776  0.00  0.00    +0.034 C 
BRANCH  32  34
ATOM     34  OG1 THR A   9      13.149  34.209  11.638  0.00  0.00    -0.382 OA
ATOM     35  HG1 THR A   9      12.478  34.407  10.937  0.00  0.00    +0.210 HD
ENDBRANCH  32  34
ENDBRANCH  21  32
ENDBRANCH  18  21
ENDBRANCH  16  17
BRANCH  16  36
ATOM     36  CB  ASP A   8       8.271  31.598  10.053  0.00  0.00    +0.143 C 
BRANCH  36  37
ATOM     37  CG  ASP A   8       6.934  31.961   9.435  0.00  0.00    +0.367 C 
ATOM     38  OD2 ASP A   8       6.614  33.165   9.351  0.00  0.00    -0.246 OA
ATOM     39  OD1 ASP A   8       6.197  31.034   9.037  0.00  0.00    -0.246 OA
ENDBRANCH  36  37
ENDBRANCH  16  36
ENDBRANCH  13  16
ENDBRANCH  11  12
BRANCH  11  40
ATOM     40  CB  ASP A   7       7.684  31.707   5.229  0.00  0.00    +0.143 C 
BRANCH  40  41
ATOM     41  CG  ASP A   7       7.365  31.219   3.826  0.00  0.00    +0.367 C 
ATOM     42  OD2 ASP A   7       6.209  30.801   3.640  0.00  0.00    -0.246 OA
ATOM     43  OD1 ASP A   7       8.226  31.269   2.922  0.00  0.00    -0.246 OA
ENDBRANCH  40  41
ENDBRANCH  11  40
ENDBRANCH   9  11
ENDBRANCH   5   7
ENDBRANCH   2   5
BRANCH   1  44
ATOM     44  CA  GLY A   5      13.790  28.513   2.185  0.00  0.00    +0.176 C 
BRANCH  44  46
ATOM     45  C   THR A   4      14.968  30.622   2.149  0.00  0.00    +0.243 C 
ATOM     46  N   GLY A   5      14.945  29.340   2.499  0.00  0.00    -0.295 N 
ATOM     47  H   GLY A   5      15.757  28.926   3.000  0.00  0.00    +0.150 HD
ATOM     48  O   THR A   4      14.032  31.172   1.558  0.00  0.00    -0.273 OA
BRANCH  45  49
ATOM     49  CA  THR A   4      16.225  31.408   2.527  0.00  0.00    +0.176 C 
BRANCH  49  52
ATOM     50  C   ASP A   3      16.589  30.520   4.769  0.00  0.00    +0.241 C 
ATOM     51  O   ASP A   3      15.495  30.931   5.152  0.00  0.00    -0.273 OA
ATOM     52  N   THR A   4      17.025  30.687   3.521  0.00  0.00    -0.295 N 
ATOM     53  H   THR A   4      17.950  30.299   3.247  0.00  0.00    +0.150 HD
BRANCH  50  54
ATOM     54  CA  ASP A   3      17.498  29.747   5.721  0.00  0.00    +0.160 C 
BRANCH  54  56
ATOM     55  C   LEU A   2      19.632  30.538   6.587  0.00  0.00    +0.241 C 
ATOM     56  N   ASP A   3      18.305  30.560   6.625  0.00  0.00    -0.297 N 
ATOM     57  H   ASP A   3      17.828  31.173   7.317  0.00  0.00    +0.150 HD
ATOM     58  O   LEU A   2      20.278  29.901   5.751  0.00  0.00    -0.273 OA
BRANCH  55  59
ATOM     59  CA  LEU A   2      20.350  31.359   7.644  0.00  0.00    +0.149 C 
BRANCH  59  62
ATOM     60  C   LEU A   1      20.186  29.669   9.396  0.00  0.00    +0.238 C 
ATOM     61  O   LEU A   1      18.996  29.925   9.591  0.00  0.00    -0.274 OA
ATOM     62  N   LEU A   2      20.927  30.321   8.503  0.00  0.00    -0.297 N 
ATOM     63  H   LEU A   2      21.937  30.089   8.413  0.00  0.00    +0.150 HD
BRANCH  60  64
ATOM     64  CA  LEU A   1      20.885  28.567  10.205  0.00  0.00    +0.145 C 
BRANCH  64  65
ATOM     65  N   LEU A   1      20.719  28.730  11.638  0.00  0.00    -0.238 NA
ATOM     66  H   LEU A   1      19.838  28.395  12.079  0.00  0.00    +0.142 HD
ENDBRANCH  64  65
BRANCH  64  67
ATOM     67  CB  LEU A   1      20.328  27.198   9.806  0.00  0.00    +0.026 C 
BRANCH  67  68
ATOM     68  CG  LEU A   1      20.490  26.682   8.380  0.00  0.00    +0.002 C 
ATOM     69  CD2 LEU A   1      19.665  25.397   8.218  0.00  0.00    +0.000 C 
ATOM     70  CD1 LEU A   1      21.960  26.409   8.091  0.00  0.00    +0.000 C 
ENDBRANCH  67  68
ENDBRANCH  64  67
ENDBRANCH  60  64
ENDBRANCH  59  62
BRANCH  59  71
ATOM     71  CB  LEU A   2      21.448  32.199   6.992  0.00  0.00    +0.029 C 
BRANCH  71  72
ATOM     72  CG  LEU A   2      22.386  32.935   7.957  0.00  0.00    +0.002 C 
ATOM     73  CD2 LEU A   2      21.588  33.852   8.867  0.00  0.00    +0.000 C 
ATOM     74  CD1 LEU A   2      23.409  33.731   7.154  0.00  0.00    +0.000 C 
ENDBRANCH  71  72
ENDBRANCH  59  71
ENDBRANCH  55  59
ENDBRANCH  54  56
BRANCH  54  75
ATOM     75  CB  ASP A   3      16.646  28.804   6.573  0.00  0.00    +0.143 C 
BRANCH  75  76
ATOM     76  CG  ASP A   3      16.080  27.647   5.781  0.00  0.00    +0.367 C 
ATOM     77  OD2 ASP A   3      15.705  26.634   6.410  0.00  0.00    -0.246 OA
ATOM     78  OD1 ASP A   3      16.006  27.751   4.543  0.00  0.00    -0.246 OA
ENDBRANCH  75  76
ENDBRANCH  54  75
ENDBRANCH  50  54
ENDBRANCH  49  52
BRANCH  49  79
ATOM     79  CB  THR A   4      17.036  31.697   1.242  0.00  0.00    +0.137 C 
ATOM     80  CG2 THR A   4      18.271  32.539   1.577  0.00  0.00    +0.034 C 
BRANCH  79  81
ATOM     81  OG1 THR A   4      17.449  30.462   0.627  0.00  0.00    -0.382 OA
ATOM     82  HG1 THR A   4      16.649  29.928   0.393  0.00  0.00    +0.210 HD
ENDBRANCH  79  81
ENDBRANCH  49  79
ENDBRANCH  45  49
ENDBRANCH  44  46
ENDBRANCH   1  44
TORSDOF 35
REMARK  Name = ../refined-set-2016/1ec2/1ec2_pocket.pdb
REMARK  229 active torsions:
REMARK  status: ('A' for Active; 'I' for Inactive)
REMARK    1  A    between atoms: _1  and  _3
REMARK    2  A    between atoms: _3  and  _4
REMARK    3  A    between atoms: _3  and  _6
REMARK    4  A    between atoms: _6  and  _7
REMARK    5  A    between atoms: _7  and  _8
REMARK    6  A    between atoms: _8  and  _9
REMARK    7  A    between atoms: _18  and  _20
REMARK    8  A    between atoms: _20  and  _21
REMARK    9  A    between atoms: _20  and  _23
REMARK   10  A    between atoms: _23  and  _24
REMARK   11  A    between atoms: _27  and  _29
REMARK   12  A    between atoms: _29  and  _30
REMARK   13  A    between atoms: _29  and  _32
REMARK   14  A    between atoms: _32  and  _33
REMARK   15  A    between atoms: _36  and  _38
REMARK   16  A    between atoms: _38  and  _39
REMARK   17  A    between atoms: _38  and  _41
REMARK   18  A    between atoms: _41  and  _42
REMARK   19  A    between atoms: _45  and  _47
REMARK   20  A    between atoms: _47  and  _48
REMARK   21  A    between atoms: _47  and  _50
REMARK   22  A    between atoms: _50  and  _51
REMARK   23  A    between atoms: _54  and  _56
REMARK   24  A    between atoms: _56  and  _57
REMARK   25  A    between atoms: _59  and  _61
REMARK   26  A    between atoms: _61  and  _62
REMARK   27  A    between atoms: _65  and  _67
REMARK   28  A    between atoms: _67  and  _68
REMARK   29  A    between atoms: _67  and  _70
REMARK   30  A    between atoms: _70  and  _71
REMARK   31  A    between atoms: _74  and  _76
REMARK   32  A    between atoms: _76  and  _77
REMARK   33  A    between atoms: _76  and  _79
REMARK   34  A    between atoms: _79  and  _80
REMARK   35  A    between atoms: _83  and  _85
REMARK   36  A    between atoms: _85  and  _86
REMARK   37  A    between atoms: _85  and  _88
REMARK   38  A    between atoms: _88  and  _89
REMARK   39  A    between atoms: _92  and  _94
REMARK   40  A    between atoms: _94  and  _95
REMARK   41  A    between atoms: _94  and  _97
REMARK   42  A    between atoms: _100  and  _102
REMARK   43  A    between atoms: _102  and  _103
REMARK   44  A    between atoms: _102  and  _105
REMARK   45  A    between atoms: _105  and  _106
REMARK   46  A    between atoms: _106  and  _107
REMARK   47  A    between atoms: _107  and  _108
REMARK   48  A    between atoms: _108  and  _109
REMARK   49  A    between atoms: _113  and  _115
REMARK   50  A    between atoms: _115  and  _116
REMARK   51  A    between atoms: _115  and  _118
REMARK   52  A    between atoms: _118  and  _119
REMARK   53  A    between atoms: _119  and  _120
REMARK   54  A    between atoms: _122  and  _124
REMARK   55  A    between atoms: _124  and  _125
REMARK   56  A    between atoms: _124  and  _127
REMARK   57  A    between atoms: _127  and  _128
REMARK   58  A    between atoms: _131  and  _133
REMARK   59  A    between atoms: _133  and  _134
REMARK   60  A    between atoms: _136  and  _138
REMARK   61  A    between atoms: _138  and  _139
REMARK   62  A    between atoms: _141  and  _143
REMARK   63  A    between atoms: _143  and  _144
REMARK   64  A    between atoms: _143  and  _146
REMARK   65  A    between atoms: _146  and  _147
REMARK   66  A    between atoms: _150  and  _152
REMARK   67  A    between atoms: _152  and  _153
REMARK   68  A    between atoms: _155  and  _157
REMARK   69  A    between atoms: _157  and  _158
REMARK   70  A    between atoms: _160  and  _162
REMARK   71  A    between atoms: _162  and  _163
REMARK   72  A    between atoms: _162  and  _165
REMARK   73  A    between atoms: _165  and  _166
REMARK   74  A    between atoms: _172  and  _174
REMARK   75  A    between atoms: _174  and  _175
REMARK   76  A    between atoms: _174  and  _177
REMARK   77  A    between atoms: _177  and  _178
REMARK   78  A    between atoms: _181  and  _183
REMARK   79  A    between atoms: _183  and  _184
REMARK   80  A    between atoms: _183  and  _186
REMARK   81  A    between atoms: _189  and  _191
REMARK   82  A    between atoms: _191  and  _192
REMARK   83  A    between atoms: _191  and  _194
REMARK   84  A    between atoms: _194  and  _195
REMARK   85  A    between atoms: _198  and  _200
REMARK   86  A    between atoms: _200  and  _201
REMARK   87  A    between atoms: _200  and  _203
REMARK   88  A    between atoms: _203  and  _204
REMARK   89  A    between atoms: _208  and  _209
REMARK   90  A    between atoms: _214  and  _216
REMARK   91  A    between atoms: _216  and  _217
REMARK   92  A    between atoms: _216  and  _219
REMARK   93  A    between atoms: _222  and  _224
REMARK   94  A    between atoms: _224  and  _225
REMARK   95  A    between atoms: _224  and  _227
REMARK   96  A    between atoms: _227  and  _228
REMARK   97  A    between atoms: _233  and  _235
REMARK   98  A    between atoms: _235  and  _236
REMARK   99  A    between atoms: _235  and  _238
REMARK  100  A    between atoms: _238  and  _239
REMARK  101  A    between atoms: _242  and  _244
REMARK  102  A    between atoms: _244  and  _245
REMARK  103  A    between atoms: _244  and  _247
REMARK  104  A    between atoms: _247  and  _248
REMARK  105  A    between atoms: _251  and  _253
REMARK  106  A    between atoms: _253  and  _254
REMARK  107  A    between atoms: _256  and  _258
REMARK  108  A    between atoms: _258  and  _259
REMARK  109  A    between atoms: _258  and  _261
REMARK  110  A    between atoms: _261  and  _262
REMARK  111  A    between atoms: _262  and  _263
REMARK  112  A    between atoms: _263  and  _264
REMARK  113  A    between atoms: _273  and  _275
REMARK  114  A    between atoms: _275  and  _276
REMARK  115  A    between atoms: _275  and  _278
REMARK  116  A    between atoms: _278  and  _279
REMARK  117  A    between atoms: _279  and  _280
REMARK  118  A    between atoms: _280  and  _281
REMARK  119  A    between atoms: _290  and  _292
REMARK  120  A    between atoms: _292  and  _293
REMARK  121  A    between atoms: _292  and  _295
REMARK  122  A    between atoms: _295  and  _296
REMARK  123  A    between atoms: _299  and  _301
REMARK  124  A    between atoms: _301  and  _302
REMARK  125  A    between atoms: _301  and  _304
REMARK  126  A    between atoms: _304  and  _305
REMARK  127  A    between atoms: _308  and  _310
REMARK  128  A    between atoms: _310  and  _311
REMARK  129  A    between atoms: _310  and  _313
REMARK  130  A    between atoms: _313  and  _314
REMARK  131  A    between atoms: _317  and  _319
REMARK  132  A    between atoms: _319  and  _320
REMARK  133  A    between atoms: _319  and  _322
REMARK  134  A    between atoms: _322  and  _323
REMARK  135  A    between atoms: _326  and  _328
REMARK  136  A    between atoms: _328  and  _329
REMARK  137  A    between atoms: _328  and  _331
REMARK  138  A    between atoms: _331  and  _332
REMARK  139  A    between atoms: _335  and  _337
REMARK  140  A    between atoms: _337  and  _338
REMARK  141  A    between atoms: _340  and  _342
REMARK  142  A    between atoms: _342  and  _343
REMARK  143  A    between atoms: _346  and  _348
REMARK  144  A    between atoms: _348  and  _349
REMARK  145  A    between atoms: _348  and  _351
REMARK  146  A    between atoms: _351  and  _352
REMARK  147  A    between atoms: _355  and  _357
REMARK  148  A    between atoms: _357  and  _358
REMARK  149  A    between atoms: _357  and  _360
REMARK  150  A    between atoms: _360  and  _361
REMARK  151  A    between atoms: _364  and  _366
REMARK  152  A    between atoms: _366  and  _367
REMARK  153  A    between atoms: _366  and  _369
REMARK  154  A    between atoms: _369  and  _370
REMARK  155  A    between atoms: _373  and  _375
REMARK  156  A    between atoms: _375  and  _376
REMARK  157  A    between atoms: _375  and  _378
REMARK  158  A    between atoms: _381  and  _383
REMARK  159  A    between atoms: _383  and  _384
REMARK  160  A    between atoms: _383  and  _386
REMARK  161  A    between atoms: _386  and  _387
REMARK  162  A    between atoms: _387  and  _388
REMARK  163  A    between atoms: _388  and  _389
REMARK  164  A    between atoms: _389  and  _390
REMARK  165  A    between atoms: _394  and  _396
REMARK  166  A    between atoms: _396  and  _397
REMARK  167  A    between atoms: _396  and  _399
REMARK  168  A    between atoms: _399  and  _400
REMARK  169  A    between atoms: _400  and  _401
REMARK  170  A    between atoms: _403  and  _405
REMARK  171  A    between atoms: _405  and  _406
REMARK  172  A    between atoms: _405  and  _408
REMARK  173  A    between atoms: _408  and  _409
REMARK  174  A    between atoms: _412  and  _414
REMARK  175  A    between atoms: _414  and  _415
REMARK  176  A    between atoms: _417  and  _419
REMARK  177  A    between atoms: _419  and  _420
REMARK  178  A    between atoms: _422  and  _424
REMARK  179  A    between atoms: _424  and  _425
REMARK  180  A    between atoms: _424  and  _427
REMARK  181  A    between atoms: _427  and  _428
REMARK  182  A    between atoms: _431  and  _433
REMARK  183  A    between atoms: _433  and  _434
REMARK  184  A    between atoms: _436  and  _438
REMARK  185  A    between atoms: _438  and  _439
REMARK  186  A    between atoms: _441  and  _443
REMARK  187  A    between atoms: _443  and  _444
REMARK  188  A    between atoms: _443  and  _446
REMARK  189  A    between atoms: _446  and  _447
REMARK  190  A    between atoms: _453  and  _455
REMARK  191  A    between atoms: _455  and  _456
REMARK  192  A    between atoms: _455  and  _458
REMARK  193  A    between atoms: _458  and  _459
REMARK  194  A    between atoms: _462  and  _464
REMARK  195  A    between atoms: _464  and  _465
REMARK  196  A    between atoms: _464  and  _467
REMARK  197  A    between atoms: _470  and  _472
REMARK  198  A    between atoms: _472  and  _473
REMARK  199  A    between atoms: _472  and  _475
REMARK  200  A    between atoms: _475  and  _476
REMARK  201  A    between atoms: _480  and  _481
REMARK  202  A    between atoms: _486  and  _488
REMARK  203  A    between atoms: _488  and  _489
REMARK  204  A    between atoms: _488  and  _491
REMARK  205  A    between atoms: _491  and  _492
REMARK  206  A    between atoms: _496  and  _497
REMARK  207  A    between atoms: _502  and  _504
REMARK  208  A    between atoms: _504  and  _505
REMARK  209  A    between atoms: _504  and  _507
REMARK  210  A    between atoms: _510  and  _512
REMARK  211  A    between atoms: _512  and  _513
REMARK  212  A    between atoms: _512  and  _515
REMARK  213  A    between atoms: _515  and  _516
REMARK  214  A    between atoms: _521  and  _523
REMARK  215  A    between atoms: _523  and  _524
REMARK  216  A    between atoms: _523  and  _526
REMARK  217  A    between atoms: _526  and  _527
REMARK  218  A    between atoms: _530  and  _532
REMARK  219  A    between atoms: _532  and  _533
REMARK  220  A    between atoms: _532  and  _535
REMARK  221  A    between atoms: _535  and  _536
REMARK  222  A    between atoms: _539  and  _541
REMARK  223  A    between atoms: _541  and  _542
REMARK  224  A    between atoms: _544  and  _546
REMARK  225  A    between atoms: _546  and  _547
REMARK  226  A    between atoms: _546  and  _549
REMARK  227  A    between atoms: _549  and  _550
REMARK  228  A    between atoms: _550  and  _551
REMARK  229  A    between atoms: _551  and  _552
REMARK                            x       y       z     vdW  Elec       q    Type
REMARK                         _______ _______ _______ _____ _____    ______ ____
ROOT
ATOM      1  C   GLY A   5       8.355  20.381   5.803  0.00  0.00    +0.243 C 
ATOM      2  O   GLY A   5       7.383  19.626   5.723  0.00  0.00    -0.273 OA
ATOM      3  N   ILE A   6       9.583  20.013   5.471  0.00  0.00    -0.297 N 
ATOM      4  H   ILE A   6      10.363  20.698   5.536  0.00  0.00    +0.150 HD
ENDROOT
BRANCH   3   5
ATOM      5  CA  ILE A   6       9.846  18.665   5.018  0.00  0.00    +0.149 C 
BRANCH   5   6
ATOM      6  C   ILE A   6       9.581  17.735   6.203  0.00  0.00    +0.241 C 
ATOM      7  O   ILE A   6      10.140  17.916   7.293  0.00  0.00    -0.273 OA
ATOM      8  N   GLY A   7       8.706  16.757   6.000  0.00  0.00    -0.295 N 
ATOM      9  H   GLY A   7       8.242  16.654   5.075  0.00  0.00    +0.150 HD
BRANCH   8  10
ATOM     10  CA  GLY A   7       8.401  15.833   7.075  0.00  0.00    +0.176 C 
BRANCH  10  11
ATOM     11  C   GLY A   7       7.070  16.089   7.755  0.00  0.00    +0.243 C 
ATOM     12  O   GLY A   7       6.625  15.281   8.567  0.00  0.00    -0.273 OA
ATOM     13  N   GLY A   8       6.430  17.210   7.444  0.00  0.00    -0.295 N 
ATOM     14  H   GLY A   8       6.848  17.884   6.771  0.00  0.00    +0.150 HD
BRANCH  13  15
ATOM     15  CA  GLY A   8       5.141  17.485   8.053  0.00  0.00    +0.176 C 
BRANCH  15  16
ATOM     16  C   GLY A   8       5.072  18.769   8.856  0.00  0.00    +0.243 C 
ATOM     17  N   PHE A   9       4.084  18.847   9.742  0.00  0.00    -0.297 N 
ATOM     18  H   PHE A   9       3.432  18.043   9.843  0.00  0.00    +0.150 HD
ATOM     19  O   GLY A   8       5.891  19.668   8.679  0.00  0.00    -0.273 OA
BRANCH  17  20
ATOM     20  CA  PHE A   9       3.889  20.028  10.576  0.00  0.00    +0.153 C 
BRANCH  20  21
ATOM     21  C   PHE A   9       4.245  19.814  12.039  0.00  0.00    +0.241 C 
ATOM     22  N   ILE A  10       4.606  20.906  12.707  0.00  0.00    -0.298 N 
ATOM     23  H   ILE A  10       4.674  21.807  12.193  0.00  0.00    +0.150 HD
ATOM     24  O   PHE A   9       4.183  18.690  12.550  0.00  0.00    -0.273 OA
BRANCH  22  25
ATOM     25  CA  ILE A  10       4.911  20.888  14.134  0.00  0.00    +0.137 C 
BRANCH  25  26
ATOM     26  C   ILE A  10       4.158  22.062  14.768  0.00  0.00    +0.227 C 
ATOM     27  O   ILE A  10       3.880  23.067  14.102  0.00  0.00    -0.286 OA
ENDBRANCH  25  26
BRANCH  25  28
ATOM     28  CB  ILE A  10       6.428  21.049  14.437  0.00  0.00    +0.026 C 
ATOM     29  CG2 ILE A  10       7.187  19.829  13.932  0.00  0.00    +0.002 C 
BRANCH  28  30
ATOM     30  CG1 ILE A  10       6.965  22.346  13.820  0.00  0.00    +0.002 C 
ATOM     31  CD1 ILE A  10       8.377  22.720  14.290  0.00  0.00    +0.000 C 
ENDBRANCH  28  30
ENDBRANCH  25  28
ENDBRANCH  22  25
ENDBRANCH  20  21
BRANCH  20  32
ATOM     32  CB  PHE A   9       2.431  20.480  10.535  0.00  0.00    +0.055 C 
BRANCH  32  33
ATOM     33  CG  PHE A   9       1.995  21.039   9.224  0.00  0.00    -0.020 A 
ATOM     34  CD2 PHE A   9       1.753  22.403   9.088  0.00  0.00    -0.004 A 
ATOM     35  CE2 PHE A   9       1.308  22.934   7.881  0.00  0.00    -0.000 A 
ATOM     36  CZ  PHE A   9       1.102  22.093   6.789  0.00  0.00    -0.000 A 
ATOM     37  CE1 PHE A   9       1.344  20.728   6.915  0.00  0.00    -0.000 A 
ATOM     38  CD1 PHE A   9       1.791  20.209   8.130  0.00  0.00    -0.004 A 
ENDBRANCH  32  33
ENDBRANCH  20  32
ENDBRANCH  17  20
ENDBRANCH  15  16
ENDBRANCH  13  15
ENDBRANCH  10  11
ENDBRANCH   8  10
ENDBRANCH   5   6
BRANCH   5  39
ATOM     39  CB  ILE A   6      11.310  18.532   4.552  0.00  0.00    +0.027 C 
ATOM     40  CG2 ILE A   6      11.696  17.066   4.443  0.00  0.00    +0.002 C 
BRANCH  39  41
ATOM     41  CG1 ILE A   6      11.488  19.269   3.219  0.00  0.00    +0.002 C 
ATOM     42  CD1 ILE A   6      10.652  18.680   2.093  0.00  0.00    +0.000 C 
ENDBRANCH  39  41
ENDBRANCH   5  39
ENDBRANCH   3   5
BRANCH   1  43
ATOM     43  CA  GLY A   5       8.193  21.799   6.300  0.00  0.00    +0.176 C 
BRANCH  43  45
ATOM     44  C   GLY A   4       6.287  22.979   7.197  0.00  0.00    +0.243 C 
ATOM     45  N   GLY A   5       6.928  21.837   6.998  0.00  0.00    -0.295 N 
ATOM     46  H   GLY A   5       6.513  20.951   7.351  0.00  0.00    +0.150 HD
ATOM     47  O   GLY A   4       6.722  24.076   6.834  0.00  0.00    -0.273 OA
BRANCH  44  48
ATOM     48  CA  GLY A   4       4.968  22.844   7.921  0.00  0.00    +0.176 C 
BRANCH  48  51
ATOM     49  C   ILE A   3       4.534  24.044   9.955  0.00  0.00    +0.241 C 
ATOM     50  O   ILE A   3       4.818  23.060  10.644  0.00  0.00    -0.273 OA
ATOM     51  N   GLY A   4       4.578  24.042   8.630  0.00  0.00    -0.295 N 
ATOM     52  H   GLY A   4       4.332  24.903   8.100  0.00  0.00    +0.150 HD
BRANCH  49  53
ATOM     53  CA  ILE A   3       4.089  25.338  10.599  0.00  0.00    +0.149 C 
BRANCH  53  55
ATOM     54  C   MET A   2       2.049  25.485  11.867  0.00  0.00    +0.241 C 
ATOM     55  N   ILE A   3       3.277  25.000  11.756  0.00  0.00    -0.297 N 
ATOM     56  H   ILE A   3       3.660  24.378  12.496  0.00  0.00    +0.150 HD
ATOM     57  O   MET A   2       1.573  26.275  11.050  0.00  0.00    -0.273 OA
BRANCH  54  58
ATOM     58  CA  MET A   2       1.247  25.059  13.084  0.00  0.00    +0.149 C 
BRANCH  58  61
ATOM     59  C   LYS A   1       1.054  26.683  14.869  0.00  0.00    +0.238 C 
ATOM     60  O   LYS A   1       1.807  26.039  15.596  0.00  0.00    -0.274 OA
ATOM     61  N   MET A   2       0.699  26.278  13.660  0.00  0.00    -0.297 N 
ATOM     62  H   MET A   2       0.017  26.840  13.112  0.00  0.00    +0.150 HD
BRANCH  59  63
ATOM     63  CA  LYS A   1       0.449  27.997  15.341  0.00  0.00    +0.145 C 
BRANCH  63  64
ATOM     64  N   LYS A   1       0.388  27.996  16.792  0.00  0.00    -0.238 NA
ATOM     65  H   LYS A   1       1.002  27.349  17.328  0.00  0.00    +0.142 HD
ENDBRANCH  63  64
BRANCH  63  66
ATOM     66  CB  LYS A   1       1.305  29.167  14.842  0.00  0.00    +0.026 C 
BRANCH  66  67
ATOM     67  CG  LYS A   1       1.315  29.328  13.327  0.00  0.00    -0.000 C 
BRANCH  67  68
ATOM     68  CD  LYS A   1       2.240  30.445  12.889  0.00  0.00    -0.024 C 
BRANCH  68  69
ATOM     69  CE  LYS A   1       2.282  30.560  11.374  0.00  0.00    -0.086 C 
BRANCH  69  70
ATOM     70  NZ  LYS A   1       3.297  31.550  10.918  0.00  0.00    +0.380 N 
ATOM     71  HZ1 LYS A   1       3.067  32.486  11.309  0.00  0.00    -0.089 HD
ATOM     72  HZ2 LYS A   1       4.238  31.257  11.248  0.00  0.00    -0.089 HD
ATOM     73  HZ3 LYS A   1       3.292  31.596   9.879  0.00  0.00    -0.089 HD
ENDBRANCH  69  70
ENDBRANCH  68  69
ENDBRANCH  67  68
ENDBRANCH  66  67
ENDBRANCH  63  66
ENDBRANCH  59  63
ENDBRANCH  58  61
BRANCH  58  74
ATOM     74  CB  MET A   2       0.128  24.106  12.661  0.00  0.00    +0.041 C 
BRANCH  74  75
ATOM     75  CG  MET A   2      -0.591  23.430  13.822  0.00  0.00    +0.060 C 
BRANCH  75  76
ATOM     76  SD  MET A   2       0.362  22.054  14.508  0.00  0.00    -0.139 S 
ATOM     77  CE  MET A   2      -0.305  20.687  13.514  0.00  0.00    +0.069 C 
ENDBRANCH  75  76
ENDBRANCH  74  75
ENDBRANCH  58  74
ENDBRANCH  54  58
ENDBRANCH  53  55
BRANCH  53  78
ATOM     78  CB  ILE A   3       5.319  26.187  10.969  0.00  0.00    +0.027 C 
ATOM     79  CG2 ILE A   3       4.877  27.578  11.384  0.00  0.00    +0.002 C 
BRANCH  78  80
ATOM     80  CG1 ILE A   3       6.125  25.504  12.075  0.00  0.00    +0.002 C 
ATOM     81  CD1 ILE A   3       7.374  26.260  12.458  0.00  0.00    +0.000 C 
ENDBRANCH  78  80
ENDBRANCH  53  78
ENDBRANCH  49  53
ENDBRANCH  48  51
ENDBRANCH  44  48
ENDBRANCH  43  45
ENDBRANCH   1  43
TORSDOF 36
REMARK  Name = ../refined-set-2016/1ec2/1ec2_pocket.pdb
REMARK  229 active torsions:
REMARK  status: ('A' for Active; 'I' for Inactive)
REMARK    1  A    between atoms: _1  and  _3
REMARK    2  A    between atoms: _3  and  _4
REMARK    3  A    between atoms: _3  and  _6
REMARK    4  A    between atoms: _6  and  _7
REMARK    5  A    between atoms: _7  and  _8
REMARK    6  A    between atoms: _8  and  _9
REMARK    7  A    between atoms: _18  and  _20
REMARK    8  A    between atoms: _20  and  _21
REMARK    9  A    between atoms: _20  and  _23
REMARK   10  A    between atoms: _23  and  _24
REMARK   11  A    between atoms: _27  and  _29
REMARK   12  A    between atoms: _29  and  _30
REMARK   13  A    between atoms: _29  and  _32
REMARK   14  A    between atoms: _32  and  _33
REMARK   15  A    between atoms: _36  and  _38
REMARK   16  A    between atoms: _38  and  _39
REMARK   17  A    between atoms: _38  and  _41
REMARK   18  A    between atoms: _41  and  _42
REMARK   19  A    between atoms: _45  and  _47
REMARK   20  A    between atoms: _47  and  _48
REMARK   21  A    between atoms: _47  and  _50
REMARK   22  A    between atoms: _50  and  _51
REMARK   23  A    between atoms: _54  and  _56
REMARK   24  A    between atoms: _56  and  _57
REMARK   25  A    between atoms: _59  and  _61
REMARK   26  A    between atoms: _61  and  _62
REMARK   27  A    between atoms: _65  and  _67
REMARK   28  A    between atoms: _67  and  _68
REMARK   29  A    between atoms: _67  and  _70
REMARK   30  A    between atoms: _70  and  _71
REMARK   31  A    between atoms: _74  and  _76
REMARK   32  A    between atoms: _76  and  _77
REMARK   33  A    between atoms: _76  and  _79
REMARK   34  A    between atoms: _79  and  _80
REMARK   35  A    between atoms: _83  and  _85
REMARK   36  A    between atoms: _85  and  _86
REMARK   37  A    between atoms: _85  and  _88
REMARK   38  A    between atoms: _88  and  _89
REMARK   39  A    between atoms: _92  and  _94
REMARK   40  A    between atoms: _94  and  _95
REMARK   41  A    between atoms: _94  and  _97
REMARK   42  A    between atoms: _100  and  _102
REMARK   43  A    between atoms: _102  and  _103
REMARK   44  A    between atoms: _102  and  _105
REMARK   45  A    between atoms: _105  and  _106
REMARK   46  A    between atoms: _106  and  _107
REMARK   47  A    between atoms: _107  and  _108
REMARK   48  A    between atoms: _108  and  _109
REMARK   49  A    between atoms: _113  and  _115
REMARK   50  A    between atoms: _115  and  _116
REMARK   51  A    between atoms: _115  and  _118
REMARK   52  A    between atoms: _118  and  _119
REMARK   53  A    between atoms: _119  and  _120
REMARK   54  A    between atoms: _122  and  _124
REMARK   55  A    between atoms: _124  and  _125
REMARK   56  A    between atoms: _124  and  _127
REMARK   57  A    between atoms: _127  and  _128
REMARK   58  A    between atoms: _131  and  _133
REMARK   59  A    between atoms: _133  and  _134
REMARK   60  A    between atoms: _136  and  _138
REMARK   61  A    between atoms: _138  and  _139
REMARK   62  A    between atoms: _141  and  _143
REMARK   63  A    between atoms: _143  and  _144
REMARK   64  A    between atoms: _143  and  _146
REMARK   65  A    between atoms: _146  and  _147
REMARK   66  A    between atoms: _150  and  _152
REMARK   67  A    between atoms: _152  and  _153
REMARK   68  A    between atoms: _155  and  _157
REMARK   69  A    between atoms: _157  and  _158
REMARK   70  A    between atoms: _160  and  _162
REMARK   71  A    between atoms: _162  and  _163
REMARK   72  A    between atoms: _162  and  _165
REMARK   73  A    between atoms: _165  and  _166
REMARK   74  A    between atoms: _172  and  _174
REMARK   75  A    between atoms: _174  and  _175
REMARK   76  A    between atoms: _174  and  _177
REMARK   77  A    between atoms: _177  and  _178
REMARK   78  A    between atoms: _181  and  _183
REMARK   79  A    between atoms: _183  and  _184
REMARK   80  A    between atoms: _183  and  _186
REMARK   81  A    between atoms: _189  and  _191
REMARK   82  A    between atoms: _191  and  _192
REMARK   83  A    between atoms: _191  and  _194
REMARK   84  A    between atoms: _194  and  _195
REMARK   85  A    between atoms: _198  and  _200
REMARK   86  A    between atoms: _200  and  _201
REMARK   87  A    between atoms: _200  and  _203
REMARK   88  A    between atoms: _203  and  _204
REMARK   89  A    between atoms: _208  and  _209
REMARK   90  A    between atoms: _214  and  _216
REMARK   91  A    between atoms: _216  and  _217
REMARK   92  A    between atoms: _216  and  _219
REMARK   93  A    between atoms: _222  and  _224
REMARK   94  A    between atoms: _224  and  _225
REMARK   95  A    between atoms: _224  and  _227
REMARK   96  A    between atoms: _227  and  _228
REMARK   97  A    between atoms: _233  and  _235
REMARK   98  A    between atoms: _235  and  _236
REMARK   99  A    between atoms: _235  and  _238
REMARK  100  A    between atoms: _238  and  _239
REMARK  101  A    between atoms: _242  and  _244
REMARK  102  A    between atoms: _244  and  _245
REMARK  103  A    between atoms: _244  and  _247
REMARK  104  A    between atoms: _247  and  _248
REMARK  105  A    between atoms: _251  and  _253
REMARK  106  A    between atoms: _253  and  _254
REMARK  107  A    between atoms: _256  and  _258
REMARK  108  A    between atoms: _258  and  _259
REMARK  109  A    between atoms: _258  and  _261
REMARK  110  A    between atoms: _261  and  _262
REMARK  111  A    between atoms: _262  and  _263
REMARK  112  A    between atoms: _263  and  _264
REMARK  113  A    between atoms: _273  and  _275
REMARK  114  A    between atoms: _275  and  _276
REMARK  115  A    between atoms: _275  and  _278
REMARK  116  A    between atoms: _278  and  _279
REMARK  117  A    between atoms: _279  and  _280
REMARK  118  A    between atoms: _280  and  _281
REMARK  119  A    between atoms: _290  and  _292
REMARK  120  A    between atoms: _292  and  _293
REMARK  121  A    between atoms: _292  and  _295
REMARK  122  A    between atoms: _295  and  _296
REMARK  123  A    between atoms: _299  and  _301
REMARK  124  A    between atoms: _301  and  _302
REMARK  125  A    between atoms: _301  and  _304
REMARK  126  A    between atoms: _304  and  _305
REMARK  127  A    between atoms: _308  and  _310
REMARK  128  A    between atoms: _310  and  _311
REMARK  129  A    between atoms: _310  and  _313
REMARK  130  A    between atoms: _313  and  _314
REMARK  131  A    between atoms: _317  and  _319
REMARK  132  A    between atoms: _319  and  _320
REMARK  133  A    between atoms: _319  and  _322
REMARK  134  A    between atoms: _322  and  _323
REMARK  135  A    between atoms: _326  and  _328
REMARK  136  A    between atoms: _328  and  _329
REMARK  137  A    between atoms: _328  and  _331
REMARK  138  A    between atoms: _331  and  _332
REMARK  139  A    between atoms: _335  and  _337
REMARK  140  A    between atoms: _337  and  _338
REMARK  141  A    between atoms: _340  and  _342
REMARK  142  A    between atoms: _342  and  _343
REMARK  143  A    between atoms: _346  and  _348
REMARK  144  A    between atoms: _348  and  _349
REMARK  145  A    between atoms: _348  and  _351
REMARK  146  A    between atoms: _351  and  _352
REMARK  147  A    between atoms: _355  and  _357
REMARK  148  A    between atoms: _357  and  _358
REMARK  149  A    between atoms: _357  and  _360
REMARK  150  A    between atoms: _360  and  _361
REMARK  151  A    between atoms: _364  and  _366
REMARK  152  A    between atoms: _366  and  _367
REMARK  153  A    between atoms: _366  and  _369
REMARK  154  A    between atoms: _369  and  _370
REMARK  155  A    between atoms: _373  and  _375
REMARK  156  A    between atoms: _375  and  _376
REMARK  157  A    between atoms: _375  and  _378
REMARK  158  A    between atoms: _381  and  _383
REMARK  159  A    between atoms: _383  and  _384
REMARK  160  A    between atoms: _383  and  _386
REMARK  161  A    between atoms: _386  and  _387
REMARK  162  A    between atoms: _387  and  _388
REMARK  163  A    between atoms: _388  and  _389
REMARK  164  A    between atoms: _389  and  _390
REMARK  165  A    between atoms: _394  and  _396
REMARK  166  A    between atoms: _396  and  _397
REMARK  167  A    between atoms: _396  and  _399
REMARK  168  A    between atoms: _399  and  _400
REMARK  169  A    between atoms: _400  and  _401
REMARK  170  A    between atoms: _403  and  _405
REMARK  171  A    between atoms: _405  and  _406
REMARK  172  A    between atoms: _405  and  _408
REMARK  173  A    between atoms: _408  and  _409
REMARK  174  A    between atoms: _412  and  _414
REMARK  175  A    between atoms: _414  and  _415
REMARK  176  A    between atoms: _417  and  _419
REMARK  177  A    between atoms: _419  and  _420
REMARK  178  A    between atoms: _422  and  _424
REMARK  179  A    between atoms: _424  and  _425
REMARK  180  A    between atoms: _424  and  _427
REMARK  181  A    between atoms: _427  and  _428
REMARK  182  A    between atoms: _431  and  _433
REMARK  183  A    between atoms: _433  and  _434
REMARK  184  A    between atoms: _436  and  _438
REMARK  185  A    between atoms: _438  and  _439
REMARK  186  A    between atoms: _441  and  _443
REMARK  187  A    between atoms: _443  and  _444
REMARK  188  A    between atoms: _443  and  _446
REMARK  189  A    between atoms: _446  and  _447
REMARK  190  A    between atoms: _453  and  _455
REMARK  191  A    between atoms: _455  and  _456
REMARK  192  A    between atoms: _455  and  _458
REMARK  193  A    between atoms: _458  and  _459
REMARK  194  A    between atoms: _462  and  _464
REMARK  195  A    between atoms: _464  and  _465
REMARK  196  A    between atoms: _464  and  _467
REMARK  197  A    between atoms: _470  and  _472
REMARK  198  A    between atoms: _472  and  _473
REMARK  199  A    between atoms: _472  and  _475
REMARK  200  A    between atoms: _475  and  _476
REMARK  201  A    between atoms: _480  and  _481
REMARK  202  A    between atoms: _486  and  _488
REMARK  203  A    between atoms: _488  and  _489
REMARK  204  A    between atoms: _488  and  _491
REMARK  205  A    between atoms: _491  and  _492
REMARK  206  A    between atoms: _496  and  _497
REMARK  207  A    between atoms: _502  and  _504
REMARK  208  A    between atoms: _504  and  _505
REMARK  209  A    between atoms: _504  and  _507
REMARK  210  A    between atoms: _510  and  _512
REMARK  211  A    between atoms: _512  and  _513
REMARK  212  A    between atoms: _512  and  _515
REMARK  213  A    between atoms: _515  and  _516
REMARK  214  A    between atoms: _521  and  _523
REMARK  215  A    between atoms: _523  and  _524
REMARK  216  A    between atoms: _523  and  _526
REMARK  217  A    between atoms: _526  and  _527
REMARK  218  A    between atoms: _530  and  _532
REMARK  219  A    between atoms: _532  and  _533
REMARK  220  A    between atoms: _532  and  _535
REMARK  221  A    between atoms: _535  and  _536
REMARK  222  A    between atoms: _539  and  _541
REMARK  223  A    between atoms: _541  and  _542
REMARK  224  A    between atoms: _544  and  _546
REMARK  225  A    between atoms: _546  and  _547
REMARK  226  A    between atoms: _546  and  _549
REMARK  227  A    between atoms: _549  and  _550
REMARK  228  A    between atoms: _550  and  _551
REMARK  229  A    between atoms: _551  and  _552
REMARK                            x       y       z     vdW  Elec       q    Type
REMARK                         _______ _______ _______ _____ _____    ______ ____
ROOT
ATOM      1  CA  VAL A   1       4.902  26.164  17.820  0.00  0.00    +0.133 C 
ENDROOT
BRANCH   1   2
ATOM      2  CB  VAL A   1       5.808  26.779  16.728  0.00  0.00    +0.023 C 
ATOM      3  CG2 VAL A   1       6.659  25.701  16.067  0.00  0.00    +0.002 C 
ATOM      4  CG1 VAL A   1       4.944  27.486  15.694  0.00  0.00    +0.002 C 
ENDBRANCH   1   2
BRANCH   1   5
ATOM      5  N   VAL A   1       3.967  25.198  17.250  0.00  0.00    -0.239 NA
ATOM      6  H   VAL A   1       3.149  25.544  16.709  0.00  0.00    +0.142 HD
ENDBRANCH   1   5
BRANCH   1   7
ATOM      7  C   VAL A   1       4.177  27.320  18.492  0.00  0.00    +0.224 C 
ATOM      8  O   VAL A   1       2.987  27.525  18.274  0.00  0.00    -0.287 OA
ENDBRANCH   1   7
TORSDOF 3
REMARK  Name = ../refined-set-2016/1ec2/1ec2_pocket.pdb
REMARK  229 active torsions:
REMARK  status: ('A' for Active; 'I' for Inactive)
REMARK    1  A    between atoms: _1  and  _3
REMARK    2  A    between atoms: _3  and  _4
REMARK    3  A    between atoms: _3  and  _6
REMARK    4  A    between atoms: _6  and  _7
REMARK    5  A    between atoms: _7  and  _8
REMARK    6  A    between atoms: _8  and  _9
REMARK    7  A    between atoms: _18  and  _20
REMARK    8  A    between atoms: _20  and  _21
REMARK    9  A    between atoms: _20  and  _23
REMARK   10  A    between atoms: _23  and  _24
REMARK   11  A    between atoms: _27  and  _29
REMARK   12  A    between atoms: _29  and  _30
REMARK   13  A    between atoms: _29  and  _32
REMARK   14  A    between atoms: _32  and  _33
REMARK   15  A    between atoms: _36  and  _38
REMARK   16  A    between atoms: _38  and  _39
REMARK   17  A    between atoms: _38  and  _41
REMARK   18  A    between atoms: _41  and  _42
REMARK   19  A    between atoms: _45  and  _47
REMARK   20  A    between atoms: _47  and  _48
REMARK   21  A    between atoms: _47  and  _50
REMARK   22  A    between atoms: _50  and  _51
REMARK   23  A    between atoms: _54  and  _56
REMARK   24  A    between atoms: _56  and  _57
REMARK   25  A    between atoms: _59  and  _61
REMARK   26  A    between atoms: _61  and  _62
REMARK   27  A    between atoms: _65  and  _67
REMARK   28  A    between atoms: _67  and  _68
REMARK   29  A    between atoms: _67  and  _70
REMARK   30  A    between atoms: _70  and  _71
REMARK   31  A    between atoms: _74  and  _76
REMARK   32  A    between atoms: _76  and  _77
REMARK   33  A    between atoms: _76  and  _79
REMARK   34  A    between atoms: _79  and  _80
REMARK   35  A    between atoms: _83  and  _85
REMARK   36  A    between atoms: _85  and  _86
REMARK   37  A    between atoms: _85  and  _88
REMARK   38  A    between atoms: _88  and  _89
REMARK   39  A    between atoms: _92  and  _94
REMARK   40  A    between atoms: _94  and  _95
REMARK   41  A    between atoms: _94  and  _97
REMARK   42  A    between atoms: _100  and  _102
REMARK   43  A    between atoms: _102  and  _103
REMARK   44  A    between atoms: _102  and  _105
REMARK   45  A    between atoms: _105  and  _106
REMARK   46  A    between atoms: _106  and  _107
REMARK   47  A    between atoms: _107  and  _108
REMARK   48  A    between atoms: _108  and  _109
REMARK   49  A    between atoms: _113  and  _115
REMARK   50  A    between atoms: _115  and  _116
REMARK   51  A    between atoms: _115  and  _118
REMARK   52  A    between atoms: _118  and  _119
REMARK   53  A    between atoms: _119  and  _120
REMARK   54  A    between atoms: _122  and  _124
REMARK   55  A    between atoms: _124  and  _125
REMARK   56  A    between atoms: _124  and  _127
REMARK   57  A    between atoms: _127  and  _128
REMARK   58  A    between atoms: _131  and  _133
REMARK   59  A    between atoms: _133  and  _134
REMARK   60  A    between atoms: _136  and  _138
REMARK   61  A    between atoms: _138  and  _139
REMARK   62  A    between atoms: _141  and  _143
REMARK   63  A    between atoms: _143  and  _144
REMARK   64  A    between atoms: _143  and  _146
REMARK   65  A    between atoms: _146  and  _147
REMARK   66  A    between atoms: _150  and  _152
REMARK   67  A    between atoms: _152  and  _153
REMARK   68  A    between atoms: _155  and  _157
REMARK   69  A    between atoms: _157  and  _158
REMARK   70  A    between atoms: _160  and  _162
REMARK   71  A    between atoms: _162  and  _163
REMARK   72  A    between atoms: _162  and  _165
REMARK   73  A    between atoms: _165  and  _166
REMARK   74  A    between atoms: _172  and  _174
REMARK   75  A    between atoms: _174  and  _175
REMARK   76  A    between atoms: _174  and  _177
REMARK   77  A    between atoms: _177  and  _178
REMARK   78  A    between atoms: _181  and  _183
REMARK   79  A    between atoms: _183  and  _184
REMARK   80  A    between atoms: _183  and  _186
REMARK   81  A    between atoms: _189  and  _191
REMARK   82  A    between atoms: _191  and  _192
REMARK   83  A    between atoms: _191  and  _194
REMARK   84  A    between atoms: _194  and  _195
REMARK   85  A    between atoms: _198  and  _200
REMARK   86  A    between atoms: _200  and  _201
REMARK   87  A    between atoms: _200  and  _203
REMARK   88  A    between atoms: _203  and  _204
REMARK   89  A    between atoms: _208  and  _209
REMARK   90  A    between atoms: _214  and  _216
REMARK   91  A    between atoms: _216  and  _217
REMARK   92  A    between atoms: _216  and  _219
REMARK   93  A    between atoms: _222  and  _224
REMARK   94  A    between atoms: _224  and  _225
REMARK   95  A    between atoms: _224  and  _227
REMARK   96  A    between atoms: _227  and  _228
REMARK   97  A    between atoms: _233  and  _235
REMARK   98  A    between atoms: _235  and  _236
REMARK   99  A    between atoms: _235  and  _238
REMARK  100  A    between atoms: _238  and  _239
REMARK  101  A    between atoms: _242  and  _244
REMARK  102  A    between atoms: _244  and  _245
REMARK  103  A    between atoms: _244  and  _247
REMARK  104  A    between atoms: _247  and  _248
REMARK  105  A    between atoms: _251  and  _253
REMARK  106  A    between atoms: _253  and  _254
REMARK  107  A    between atoms: _256  and  _258
REMARK  108  A    between atoms: _258  and  _259
REMARK  109  A    between atoms: _258  and  _261
REMARK  110  A    between atoms: _261  and  _262
REMARK  111  A    between atoms: _262  and  _263
REMARK  112  A    between atoms: _263  and  _264
REMARK  113  A    between atoms: _273  and  _275
REMARK  114  A    between atoms: _275  and  _276
REMARK  115  A    between atoms: _275  and  _278
REMARK  116  A    between atoms: _278  and  _279
REMARK  117  A    between atoms: _279  and  _280
REMARK  118  A    between atoms: _280  and  _281
REMARK  119  A    between atoms: _290  and  _292
REMARK  120  A    between atoms: _292  and  _293
REMARK  121  A    between atoms: _292  and  _295
REMARK  122  A    between atoms: _295  and  _296
REMARK  123  A    between atoms: _299  and  _301
REMARK  124  A    between atoms: _301  and  _302
REMARK  125  A    between atoms: _301  and  _304
REMARK  126  A    between atoms: _304  and  _305
REMARK  127  A    between atoms: _308  and  _310
REMARK  128  A    between atoms: _310  and  _311
REMARK  129  A    between atoms: _310  and  _313
REMARK  130  A    between atoms: _313  and  _314
REMARK  131  A    between atoms: _317  and  _319
REMARK  132  A    between atoms: _319  and  _320
REMARK  133  A    between atoms: _319  and  _322
REMARK  134  A    between atoms: _322  and  _323
REMARK  135  A    between atoms: _326  and  _328
REMARK  136  A    between atoms: _328  and  _329
REMARK  137  A    between atoms: _328  and  _331
REMARK  138  A    between atoms: _331  and  _332
REMARK  139  A    between atoms: _335  and  _337
REMARK  140  A    between atoms: _337  and  _338
REMARK  141  A    between atoms: _340  and  _342
REMARK  142  A    between atoms: _342  and  _343
REMARK  143  A    between atoms: _346  and  _348
REMARK  144  A    between atoms: _348  and  _349
REMARK  145  A    between atoms: _348  and  _351
REMARK  146  A    between atoms: _351  and  _352
REMARK  147  A    between atoms: _355  and  _357
REMARK  148  A    between atoms: _357  and  _358
REMARK  149  A    between atoms: _357  and  _360
REMARK  150  A    between atoms: _360  and  _361
REMARK  151  A    between atoms: _364  and  _366
REMARK  152  A    between atoms: _366  and  _367
REMARK  153  A    between atoms: _366  and  _369
REMARK  154  A    between atoms: _369  and  _370
REMARK  155  A    between atoms: _373  and  _375
REMARK  156  A    between atoms: _375  and  _376
REMARK  157  A    between atoms: _375  and  _378
REMARK  158  A    between atoms: _381  and  _383
REMARK  159  A    between atoms: _383  and  _384
REMARK  160  A    between atoms: _383  and  _386
REMARK  161  A    between atoms: _386  and  _387
REMARK  162  A    between atoms: _387  and  _388
REMARK  163  A    between atoms: _388  and  _389
REMARK  164  A    between atoms: _389  and  _390
REMARK  165  A    between atoms: _394  and  _396
REMARK  166  A    between atoms: _396  and  _397
REMARK  167  A    between atoms: _396  and  _399
REMARK  168  A    between atoms: _399  and  _400
REMARK  169  A    between atoms: _400  and  _401
REMARK  170  A    between atoms: _403  and  _405
REMARK  171  A    between atoms: _405  and  _406
REMARK  172  A    between atoms: _405  and  _408
REMARK  173  A    between atoms: _408  and  _409
REMARK  174  A    between atoms: _412  and  _414
REMARK  175  A    between atoms: _414  and  _415
REMARK  176  A    between atoms: _417  and  _419
REMARK  177  A    between atoms: _419  and  _420
REMARK  178  A    between atoms: _422  and  _424
REMARK  179  A    between atoms: _424  and  _425
REMARK  180  A    between atoms: _424  and  _427
REMARK  181  A    between atoms: _427  and  _428
REMARK  182  A    between atoms: _431  and  _433
REMARK  183  A    between atoms: _433  and  _434
REMARK  184  A    between atoms: _436  and  _438
REMARK  185  A    between atoms: _438  and  _439
REMARK  186  A    between atoms: _441  and  _443
REMARK  187  A    between atoms: _443  and  _444
REMARK  188  A    between atoms: _443  and  _446
REMARK  189  A    between atoms: _446  and  _447
REMARK  190  A    between atoms: _453  and  _455
REMARK  191  A    between atoms: _455  and  _456
REMARK  192  A    between atoms: _455  and  _458
REMARK  193  A    between atoms: _458  and  _459
REMARK  194  A    between atoms: _462  and  _464
REMARK  195  A    between atoms: _464  and  _465
REMARK  196  A    between atoms: _464  and  _467
REMARK  197  A    between atoms: _470  and  _472
REMARK  198  A    between atoms: _472  and  _473
REMARK  199  A    between atoms: _472  and  _475
REMARK  200  A    between atoms: _475  and  _476
REMARK  201  A    between atoms: _480  and  _481
REMARK  202  A    between atoms: _486  and  _488
REMARK  203  A    between atoms: _488  and  _489
REMARK  204  A    between atoms: _488  and  _491
REMARK  205  A    between atoms: _491  and  _492
REMARK  206  A    between atoms: _496  and  _497
REMARK  207  A    between atoms: _502  and  _504
REMARK  208  A    between atoms: _504  and  _505
REMARK  209  A    between atoms: _504  and  _507
REMARK  210  A    between atoms: _510  and  _512
REMARK  211  A    between atoms: _512  and  _513
REMARK  212  A    between atoms: _512  and  _515
REMARK  213  A    between atoms: _515  and  _516
REMARK  214  A    between atoms: _521  and  _523
REMARK  215  A    between atoms: _523  and  _524
REMARK  216  A    between atoms: _523  and  _526
REMARK  217  A    between atoms: _526  and  _527
REMARK  218  A    between atoms: _530  and  _532
REMARK  219  A    between atoms: _532  and  _533
REMARK  220  A    between atoms: _532  and  _535
REMARK  221  A    between atoms: _535  and  _536
REMARK  222  A    between atoms: _539  and  _541
REMARK  223  A    between atoms: _541  and  _542
REMARK  224  A    between atoms: _544  and  _546
REMARK  225  A    between atoms: _546  and  _547
REMARK  226  A    between atoms: _546  and  _549
REMARK  227  A    between atoms: _549  and  _550
REMARK  228  A    between atoms: _550  and  _551
REMARK  229  A    between atoms: _551  and  _552
REMARK                            x       y       z     vdW  Elec       q    Type
REMARK                         _______ _______ _______ _____ _____    ______ ____
ROOT
ATOM      1  CA  LEU A   1       8.235  30.882  16.537  0.00  0.00    +0.133 C 
ENDROOT
BRANCH   1   2
ATOM      2  N   LEU A   1       9.016  32.047  16.148  0.00  0.00    -0.239 NA
ATOM      3  H   LEU A   1       9.744  31.949  15.412  0.00  0.00    +0.142 HD
ENDBRANCH   1   2
BRANCH   1   4
ATOM      4  C   LEU A   1       9.142  29.979  17.362  0.00  0.00    +0.224 C 
ATOM      5  O   LEU A   1      10.316  29.799  17.028  0.00  0.00    -0.287 OA
ENDBRANCH   1   4
BRANCH   1   6
ATOM      6  CB  LEU A   1       7.725  30.144  15.292  0.00  0.00    +0.025 C 
BRANCH   6   7
ATOM      7  CG  LEU A   1       6.993  31.018  14.263  0.00  0.00    +0.002 C 
ATOM      8  CD2 LEU A   1       5.762  31.663  14.898  0.00  0.00    +0.000 C 
ATOM      9  CD1 LEU A   1       6.597  30.170  13.069  0.00  0.00    +0.000 C 
ENDBRANCH   6   7
ENDBRANCH   1   6
TORSDOF 4
REMARK  Name = ../refined-set-2016/1ec2/1ec2_pocket.pdb
REMARK  229 active torsions:
REMARK  status: ('A' for Active; 'I' for Inactive)
REMARK    1  A    between atoms: _1  and  _3
REMARK    2  A    between atoms: _3  and  _4
REMARK    3  A    between atoms: _3  and  _6
REMARK    4  A    between atoms: _6  and  _7
REMARK    5  A    between atoms: _7  and  _8
REMARK    6  A    between atoms: _8  and  _9
REMARK    7  A    between atoms: _18  and  _20
REMARK    8  A    between atoms: _20  and  _21
REMARK    9  A    between atoms: _20  and  _23
REMARK   10  A    between atoms: _23  and  _24
REMARK   11  A    between atoms: _27  and  _29
REMARK   12  A    between atoms: _29  and  _30
REMARK   13  A    between atoms: _29  and  _32
REMARK   14  A    between atoms: _32  and  _33
REMARK   15  A    between atoms: _36  and  _38
REMARK   16  A    between atoms: _38  and  _39
REMARK   17  A    between atoms: _38  and  _41
REMARK   18  A    between atoms: _41  and  _42
REMARK   19  A    between atoms: _45  and  _47
REMARK   20  A    between atoms: _47  and  _48
REMARK   21  A    between atoms: _47  and  _50
REMARK   22  A    between atoms: _50  and  _51
REMARK   23  A    between atoms: _54  and  _56
REMARK   24  A    between atoms: _56  and  _57
REMARK   25  A    between atoms: _59  and  _61
REMARK   26  A    between atoms: _61  and  _62
REMARK   27  A    between atoms: _65  and  _67
REMARK   28  A    between atoms: _67  and  _68
REMARK   29  A    between atoms: _67  and  _70
REMARK   30  A    between atoms: _70  and  _71
REMARK   31  A    between atoms: _74  and  _76
REMARK   32  A    between atoms: _76  and  _77
REMARK   33  A    between atoms: _76  and  _79
REMARK   34  A    between atoms: _79  and  _80
REMARK   35  A    between atoms: _83  and  _85
REMARK   36  A    between atoms: _85  and  _86
REMARK   37  A    between atoms: _85  and  _88
REMARK   38  A    between atoms: _88  and  _89
REMARK   39  A    between atoms: _92  and  _94
REMARK   40  A    between atoms: _94  and  _95
REMARK   41  A    between atoms: _94  and  _97
REMARK   42  A    between atoms: _100  and  _102
REMARK   43  A    between atoms: _102  and  _103
REMARK   44  A    between atoms: _102  and  _105
REMARK   45  A    between atoms: _105  and  _106
REMARK   46  A    between atoms: _106  and  _107
REMARK   47  A    between atoms: _107  and  _108
REMARK   48  A    between atoms: _108  and  _109
REMARK   49  A    between atoms: _113  and  _115
REMARK   50  A    between atoms: _115  and  _116
REMARK   51  A    between atoms: _115  and  _118
REMARK   52  A    between atoms: _118  and  _119
REMARK   53  A    between atoms: _119  and  _120
REMARK   54  A    between atoms: _122  and  _124
REMARK   55  A    between atoms: _124  and  _125
REMARK   56  A    between atoms: _124  and  _127
REMARK   57  A    between atoms: _127  and  _128
REMARK   58  A    between atoms: _131  and  _133
REMARK   59  A    between atoms: _133  and  _134
REMARK   60  A    between atoms: _136  and  _138
REMARK   61  A    between atoms: _138  and  _139
REMARK   62  A    between atoms: _141  and  _143
REMARK   63  A    between atoms: _143  and  _144
REMARK   64  A    between atoms: _143  and  _146
REMARK   65  A    between atoms: _146  and  _147
REMARK   66  A    between atoms: _150  and  _152
REMARK   67  A    between atoms: _152  and  _153
REMARK   68  A    between atoms: _155  and  _157
REMARK   69  A    between atoms: _157  and  _158
REMARK   70  A    between atoms: _160  and  _162
REMARK   71  A    between atoms: _162  and  _163
REMARK   72  A    between atoms: _162  and  _165
REMARK   73  A    between atoms: _165  and  _166
REMARK   74  A    between atoms: _172  and  _174
REMARK   75  A    between atoms: _174  and  _175
REMARK   76  A    between atoms: _174  and  _177
REMARK   77  A    between atoms: _177  and  _178
REMARK   78  A    between atoms: _181  and  _183
REMARK   79  A    between atoms: _183  and  _184
REMARK   80  A    between atoms: _183  and  _186
REMARK   81  A    between atoms: _189  and  _191
REMARK   82  A    between atoms: _191  and  _192
REMARK   83  A    between atoms: _191  and  _194
REMARK   84  A    between atoms: _194  and  _195
REMARK   85  A    between atoms: _198  and  _200
REMARK   86  A    between atoms: _200  and  _201
REMARK   87  A    between atoms: _200  and  _203
REMARK   88  A    between atoms: _203  and  _204
REMARK   89  A    between atoms: _208  and  _209
REMARK   90  A    between atoms: _214  and  _216
REMARK   91  A    between atoms: _216  and  _217
REMARK   92  A    between atoms: _216  and  _219
REMARK   93  A    between atoms: _222  and  _224
REMARK   94  A    between atoms: _224  and  _225
REMARK   95  A    between atoms: _224  and  _227
REMARK   96  A    between atoms: _227  and  _228
REMARK   97  A    between atoms: _233  and  _235
REMARK   98  A    between atoms: _235  and  _236
REMARK   99  A    between atoms: _235  and  _238
REMARK  100  A    between atoms: _238  and  _239
REMARK  101  A    between atoms: _242  and  _244
REMARK  102  A    between atoms: _244  and  _245
REMARK  103  A    between atoms: _244  and  _247
REMARK  104  A    between atoms: _247  and  _248
REMARK  105  A    between atoms: _251  and  _253
REMARK  106  A    between atoms: _253  and  _254
REMARK  107  A    between atoms: _256  and  _258
REMARK  108  A    between atoms: _258  and  _259
REMARK  109  A    between atoms: _258  and  _261
REMARK  110  A    between atoms: _261  and  _262
REMARK  111  A    between atoms: _262  and  _263
REMARK  112  A    between atoms: _263  and  _264
REMARK  113  A    between atoms: _273  and  _275
REMARK  114  A    between atoms: _275  and  _276
REMARK  115  A    between atoms: _275  and  _278
REMARK  116  A    between atoms: _278  and  _279
REMARK  117  A    between atoms: _279  and  _280
REMARK  118  A    between atoms: _280  and  _281
REMARK  119  A    between atoms: _290  and  _292
REMARK  120  A    between atoms: _292  and  _293
REMARK  121  A    between atoms: _292  and  _295
REMARK  122  A    between atoms: _295  and  _296
REMARK  123  A    between atoms: _299  and  _301
REMARK  124  A    between atoms: _301  and  _302
REMARK  125  A    between atoms: _301  and  _304
REMARK  126  A    between atoms: _304  and  _305
REMARK  127  A    between atoms: _308  and  _310
REMARK  128  A    between atoms: _310  and  _311
REMARK  129  A    between atoms: _310  and  _313
REMARK  130  A    between atoms: _313  and  _314
REMARK  131  A    between atoms: _317  and  _319
REMARK  132  A    between atoms: _319  and  _320
REMARK  133  A    between atoms: _319  and  _322
REMARK  134  A    between atoms: _322  and  _323
REMARK  135  A    between atoms: _326  and  _328
REMARK  136  A    between atoms: _328  and  _329
REMARK  137  A    between atoms: _328  and  _331
REMARK  138  A    between atoms: _331  and  _332
REMARK  139  A    between atoms: _335  and  _337
REMARK  140  A    between atoms: _337  and  _338
REMARK  141  A    between atoms: _340  and  _342
REMARK  142  A    between atoms: _342  and  _343
REMARK  143  A    between atoms: _346  and  _348
REMARK  144  A    between atoms: _348  and  _349
REMARK  145  A    between atoms: _348  and  _351
REMARK  146  A    between atoms: _351  and  _352
REMARK  147  A    between atoms: _355  and  _357
REMARK  148  A    between atoms: _357  and  _358
REMARK  149  A    between atoms: _357  and  _360
REMARK  150  A    between atoms: _360  and  _361
REMARK  151  A    between atoms: _364  and  _366
REMARK  152  A    between atoms: _366  and  _367
REMARK  153  A    between atoms: _366  and  _369
REMARK  154  A    between atoms: _369  and  _370
REMARK  155  A    between atoms: _373  and  _375
REMARK  156  A    between atoms: _375  and  _376
REMARK  157  A    between atoms: _375  and  _378
REMARK  158  A    between atoms: _381  and  _383
REMARK  159  A    between atoms: _383  and  _384
REMARK  160  A    between atoms: _383  and  _386
REMARK  161  A    between atoms: _386  and  _387
REMARK  162  A    between atoms: _387  and  _388
REMARK  163  A    between atoms: _388  and  _389
REMARK  164  A    between atoms: _389  and  _390
REMARK  165  A    between atoms: _394  and  _396
REMARK  166  A    between atoms: _396  and  _397
REMARK  167  A    between atoms: _396  and  _399
REMARK  168  A    between atoms: _399  and  _400
REMARK  169  A    between atoms: _400  and  _401
REMARK  170  A    between atoms: _403  and  _405
REMARK  171  A    between atoms: _405  and  _406
REMARK  172  A    between atoms: _405  and  _408
REMARK  173  A    between atoms: _408  and  _409
REMARK  174  A    between atoms: _412  and  _414
REMARK  175  A    between atoms: _414  and  _415
REMARK  176  A    between atoms: _417  and  _419
REMARK  177  A    between atoms: _419  and  _420
REMARK  178  A    between atoms: _422  and  _424
REMARK  179  A    between atoms: _424  and  _425
REMARK  180  A    between atoms: _424  and  _427
REMARK  181  A    between atoms: _427  and  _428
REMARK  182  A    between atoms: _431  and  _433
REMARK  183  A    between atoms: _433  and  _434
REMARK  184  A    between atoms: _436  and  _438
REMARK  185  A    between atoms: _438  and  _439
REMARK  186  A    between atoms: _441  and  _443
REMARK  187  A    between atoms: _443  and  _444
REMARK  188  A    between atoms: _443  and  _446
REMARK  189  A    between atoms: _446  and  _447
REMARK  190  A    between atoms: _453  and  _455
REMARK  191  A    between atoms: _455  and  _456
REMARK  192  A    between atoms: _455  and  _458
REMARK  193  A    between atoms: _458  and  _459
REMARK  194  A    between atoms: _462  and  _464
REMARK  195  A    between atoms: _464  and  _465
REMARK  196  A    between atoms: _464  and  _467
REMARK  197  A    between atoms: _470  and  _472
REMARK  198  A    between atoms: _472  and  _473
REMARK  199  A    between atoms: _472  and  _475
REMARK  200  A    between atoms: _475  and  _476
REMARK  201  A    between atoms: _480  and  _481
REMARK  202  A    between atoms: _486  and  _488
REMARK  203  A    between atoms: _488  and  _489
REMARK  204  A    between atoms: _488  and  _491
REMARK  205  A    between atoms: _491  and  _492
REMARK  206  A    between atoms: _496  and  _497
REMARK  207  A    between atoms: _502  and  _504
REMARK  208  A    between atoms: _504  and  _505
REMARK  209  A    between atoms: _504  and  _507
REMARK  210  A    between atoms: _510  and  _512
REMARK  211  A    between atoms: _512  and  _513
REMARK  212  A    between atoms: _512  and  _515
REMARK  213  A    between atoms: _515  and  _516
REMARK  214  A    between atoms: _521  and  _523
REMARK  215  A    between atoms: _523  and  _524
REMARK  216  A    between atoms: _523  and  _526
REMARK  217  A    between atoms: _526  and  _527
REMARK  218  A    between atoms: _530  and  _532
REMARK  219  A    between atoms: _532  and  _533
REMARK  220  A    between atoms: _532  and  _535
REMARK  221  A    between atoms: _535  and  _536
REMARK  222  A    between atoms: _539  and  _541
REMARK  223  A    between atoms: _541  and  _542
REMARK  224  A    between atoms: _544  and  _546
REMARK  225  A    between atoms: _546  and  _547
REMARK  226  A    between atoms: _546  and  _549
REMARK  227  A    between atoms: _549  and  _550
REMARK  228  A    between atoms: _550  and  _551
REMARK  229  A    between atoms: _551  and  _552
REMARK                            x       y       z     vdW  Elec       q    Type
REMARK                         _______ _______ _______ _____ _____    ______ ____
ROOT
ATOM      1  CA  ILE A   5      16.142  28.656  11.789  0.00  0.00    +0.149 C 
ENDROOT
BRANCH   1   3
ATOM      2  C   ASN A   4      17.422  27.628  13.570  0.00  0.00    +0.241 C 
ATOM      3  N   ILE A   5      16.281  28.153  13.144  0.00  0.00    -0.297 N 
ATOM      4  H   ILE A   5      15.470  28.205  13.793  0.00  0.00    +0.150 HD
ATOM      5  O   ASN A   4      18.439  27.573  12.876  0.00  0.00    -0.273 OA
BRANCH   2   6
ATOM      6  CA  ASN A   4      17.420  27.096  14.994  0.00  0.00    +0.158 C 
BRANCH   6   8
ATOM      7  C   VAL A   3      17.213  24.727  14.515  0.00  0.00    +0.241 C 
ATOM      8  N   ASN A   4      17.944  25.732  14.994  0.00  0.00    -0.297 N 
ATOM      9  H   ASN A   4      18.895  25.545  15.371  0.00  0.00    +0.150 HD
ATOM     10  O   VAL A   3      16.070  24.885  14.081  0.00  0.00    -0.273 OA
BRANCH   7  11
ATOM     11  CA  VAL A   3      17.843  23.331  14.533  0.00  0.00    +0.149 C 
BRANCH  11  14
ATOM     12  C   PRO A   2      17.014  21.159  15.273  0.00  0.00    +0.241 C 
ATOM     13  O   PRO A   2      18.109  20.837  15.721  0.00  0.00    -0.273 OA
ATOM     14  N   VAL A   3      16.786  22.336  14.700  0.00  0.00    -0.297 N 
ATOM     15  H   VAL A   3      15.828  22.555  14.361  0.00  0.00    +0.150 HD
BRANCH  12  19
ATOM     16  C   THR A   1      14.008  21.665  16.053  0.00  0.00    +0.244 C 
ATOM     17  O   THR A   1      14.617  21.968  17.075  0.00  0.00    -0.273 OA
ATOM     18  N   PRO A   2      14.518  20.818  15.154  0.00  0.00    -0.272 N 
ATOM     19  CA  PRO A   2      15.832  20.203  15.364  0.00  0.00    +0.152 C 
ATOM     20  CB  PRO A   2      15.873  19.110  14.295  0.00  0.00    +0.031 C 
ATOM     21  CG  PRO A   2      15.021  19.676  13.199  0.00  0.00    +0.024 C 
ATOM     22  CD  PRO A   2      13.866  20.292  13.943  0.00  0.00    +0.094 C 
BRANCH  16  23
ATOM     23  CA  THR A   1      12.634  22.252  15.755  0.00  0.00    +0.172 C 
BRANCH  23  24
ATOM     24  CB  THR A   1      12.822  23.675  15.179  0.00  0.00    +0.135 C 
ATOM     25  CG2 THR A   1      13.468  24.607  16.217  0.00  0.00    +0.034 C 
BRANCH  24  26
ATOM     26  OG1 THR A   1      13.655  23.602  14.016  0.00  0.00    -0.383 OA
ATOM     27  HG1 THR A   1      14.535  23.223  14.265  0.00  0.00    +0.210 HD
ENDBRANCH  24  26
ENDBRANCH  23  24
BRANCH  23  28
ATOM     28  N   THR A   1      11.869  22.255  16.992  0.00  0.00    -0.236 NA
ATOM     29  H   THR A   1      11.868  23.107  17.589  0.00  0.00    +0.142 HD
ENDBRANCH  23  28
ENDBRANCH  16  23
ENDBRANCH  12  19
ENDBRANCH  11  14
BRANCH  11  30
ATOM     30  CB  VAL A   3      18.590  23.097  13.195  0.00  0.00    +0.027 C 
ATOM     31  CG2 VAL A   3      19.690  24.120  13.013  0.00  0.00    +0.002 C 
ATOM     32  CG1 VAL A   3      17.606  23.179  12.032  0.00  0.00    +0.002 C 
ENDBRANCH  11  30
ENDBRANCH   7  11
ENDBRANCH   6   8
BRANCH   6  33
ATOM     33  CB  ASN A   4      18.258  28.002  15.898  0.00  0.00    +0.114 C 
BRANCH  33  34
ATOM     34  CG  ASN A   4      18.105  27.648  17.370  0.00  0.00    +0.222 C 
ATOM     35  ND2 ASN A   4      19.224  27.486  18.060  0.00  0.00    -0.329 N 
ATOM     36 HD21 ASN A   4      19.181  27.252  19.072  0.00  0.00    +0.145 HD
ATOM     37 HD22 ASN A   4      20.145  27.593  17.589  0.00  0.00    +0.145 HD
ATOM     38  OD1 ASN A   4      16.988  27.533  17.878  0.00  0.00    -0.275 OA
ENDBRANCH  33  34
ENDBRANCH   6  33
ENDBRANCH   2   6
ENDBRANCH   1   3
BRANCH   1  39
ATOM     39  C   ILE A   5      15.854  30.151  11.703  0.00  0.00    +0.241 C 
ATOM     40  O   ILE A   5      14.898  30.640  12.299  0.00  0.00    -0.273 OA
ATOM     41  N   ILE A   6      16.689  30.872  10.961  0.00  0.00    -0.297 N 
ATOM     42  H   ILE A   6      17.509  30.410  10.518  0.00  0.00    +0.150 HD
BRANCH  41  43
ATOM     43  CA  ILE A   6      16.473  32.303  10.758  0.00  0.00    +0.149 C 
BRANCH  43  44
ATOM     44  C   ILE A   6      15.833  32.383   9.374  0.00  0.00    +0.241 C 
ATOM     45  N   GLY A   7      14.556  32.758   9.340  0.00  0.00    -0.295 N 
ATOM     46  H   GLY A   7      14.070  32.999  10.227  0.00  0.00    +0.150 HD
ATOM     47  O   ILE A   6      16.492  32.103   8.366  0.00  0.00    -0.273 OA
BRANCH  45  48
ATOM     48  CA  GLY A   7      13.829  32.836   8.082  0.00  0.00    +0.176 C 
BRANCH  48  49
ATOM     49  C   GLY A   7      13.879  34.185   7.383  0.00  0.00    +0.243 C 
ATOM     50  O   GLY A   7      14.541  35.116   7.843  0.00  0.00    -0.273 OA
ATOM     51  N   ARG A   8      13.164  34.286   6.267  0.00  0.00    -0.298 N 
ATOM     52  H   ARG A   8      12.611  33.465   5.946  0.00  0.00    +0.150 HD
BRANCH  51  53
ATOM     53  CA  ARG A   8      13.131  35.511   5.480  0.00  0.00    +0.137 C 
BRANCH  53  54
ATOM     54  C   ARG A   8      12.605  36.734   6.229  0.00  0.00    +0.227 C 
ATOM     55  O   ARG A   8      13.046  37.853   5.964  0.00  0.00    -0.286 OA
ENDBRANCH  53  54
BRANCH  53  56
ATOM     56  CB  ARG A   8      12.294  35.305   4.206  0.00  0.00    +0.031 C 
BRANCH  56  57
ATOM     57  CG  ARG A   8      12.857  34.245   3.263  0.00  0.00    +0.045 C 
BRANCH  57  58
ATOM     58  CD  ARG A   8      12.113  34.200   1.928  0.00  0.00    +0.174 C 
BRANCH  58  59
ATOM     59  NE  ARG A   8      10.716  33.796   2.081  0.00  0.00    -0.265 N 
ATOM     60  HE  ARG A   8      10.518  32.784   2.212  0.00  0.00    +0.259 HD
ATOM     61  CZ  ARG A   8       9.679  34.633   2.064  0.00  0.00    +0.342 C 
ATOM     62  NH2 ARG A   8       8.451  34.162   2.241  0.00  0.00    -0.292 N 
ATOM     63 HH21 ARG A   8       8.301  33.144   2.392  0.00  0.00    +0.255 HD
ATOM     64 HH22 ARG A   8       7.638  34.811   2.229  0.00  0.00    +0.255 HD
ATOM     65  NH1 ARG A   8       9.868  35.938   1.892  0.00  0.00    -0.292 N 
ATOM     66 HH11 ARG A   8       9.053  36.584   1.880  0.00  0.00    +0.255 HD
ATOM     67 HH12 ARG A   8      10.831  36.312   1.769  0.00  0.00    +0.255 HD
ENDBRANCH  58  59
ENDBRANCH  57  58
ENDBRANCH  56  57
ENDBRANCH  53  56
ENDBRANCH  51  53
ENDBRANCH  48  49
ENDBRANCH  45  48
ENDBRANCH  43  44
BRANCH  43  68
ATOM     68  CB  ILE A   6      17.788  33.108  10.727  0.00  0.00    +0.027 C 
ATOM     69  CG2 ILE A   6      17.485  34.569  10.405  0.00  0.00    +0.002 C 
BRANCH  68  70
ATOM     70  CG1 ILE A   6      18.518  32.981  12.068  0.00  0.00    +0.002 C 
ATOM     71  CD1 ILE A   6      17.673  33.357  13.270  0.00  0.00    +0.000 C 
ENDBRANCH  68  70
ENDBRANCH  43  68
ENDBRANCH  41  43
ENDBRANCH   1  39
BRANCH   1  72
ATOM     72  CB  ILE A   5      14.994  27.917  11.055  0.00  0.00    +0.027 C 
ATOM     73  CG2 ILE A   5      14.841  28.459   9.638  0.00  0.00    +0.002 C 
BRANCH  72  74
ATOM     74  CG1 ILE A   5      15.240  26.403  11.070  0.00  0.00    +0.002 C 
ATOM     75  CD1 ILE A   5      16.576  25.998  10.535  0.00  0.00    +0.000 C 
ENDBRANCH  72  74
ENDBRANCH   1  72
TORSDOF 28
REMARK  Name = ../refined-set-2016/1ec2/1ec2_pocket.pdb
REMARK  229 active torsions:
REMARK  status: ('A' for Active; 'I' for Inactive)
REMARK    1  A    between atoms: _1  and  _3
REMARK    2  A    between atoms: _3  and  _4
REMARK    3  A    between atoms: _3  and  _6
REMARK    4  A    between atoms: _6  and  _7
REMARK    5  A    between atoms: _7  and  _8
REMARK    6  A    between atoms: _8  and  _9
REMARK    7  A    between atoms: _18  and  _20
REMARK    8  A    between atoms: _20  and  _21
REMARK    9  A    between atoms: _20  and  _23
REMARK   10  A    between atoms: _23  and  _24
REMARK   11  A    between atoms: _27  and  _29
REMARK   12  A    between atoms: _29  and  _30
REMARK   13  A    between atoms: _29  and  _32
REMARK   14  A    between atoms: _32  and  _33
REMARK   15  A    between atoms: _36  and  _38
REMARK   16  A    between atoms: _38  and  _39
REMARK   17  A    between atoms: _38  and  _41
REMARK   18  A    between atoms: _41  and  _42
REMARK   19  A    between atoms: _45  and  _47
REMARK   20  A    between atoms: _47  and  _48
REMARK   21  A    between atoms: _47  and  _50
REMARK   22  A    between atoms: _50  and  _51
REMARK   23  A    between atoms: _54  and  _56
REMARK   24  A    between atoms: _56  and  _57
REMARK   25  A    between atoms: _59  and  _61
REMARK   26  A    between atoms: _61  and  _62
REMARK   27  A    between atoms: _65  and  _67
REMARK   28  A    between atoms: _67  and  _68
REMARK   29  A    between atoms: _67  and  _70
REMARK   30  A    between atoms: _70  and  _71
REMARK   31  A    between atoms: _74  and  _76
REMARK   32  A    between atoms: _76  and  _77
REMARK   33  A    between atoms: _76  and  _79
REMARK   34  A    between atoms: _79  and  _80
REMARK   35  A    between atoms: _83  and  _85
REMARK   36  A    between atoms: _85  and  _86
REMARK   37  A    between atoms: _85  and  _88
REMARK   38  A    between atoms: _88  and  _89
REMARK   39  A    between atoms: _92  and  _94
REMARK   40  A    between atoms: _94  and  _95
REMARK   41  A    between atoms: _94  and  _97
REMARK   42  A    between atoms: _100  and  _102
REMARK   43  A    between atoms: _102  and  _103
REMARK   44  A    between atoms: _102  and  _105
REMARK   45  A    between atoms: _105  and  _106
REMARK   46  A    between atoms: _106  and  _107
REMARK   47  A    between atoms: _107  and  _108
REMARK   48  A    between atoms: _108  and  _109
REMARK   49  A    between atoms: _113  and  _115
REMARK   50  A    between atoms: _115  and  _116
REMARK   51  A    between atoms: _115  and  _118
REMARK   52  A    between atoms: _118  and  _119
REMARK   53  A    between atoms: _119  and  _120
REMARK   54  A    between atoms: _122  and  _124
REMARK   55  A    between atoms: _124  and  _125
REMARK   56  A    between atoms: _124  and  _127
REMARK   57  A    between atoms: _127  and  _128
REMARK   58  A    between atoms: _131  and  _133
REMARK   59  A    between atoms: _133  and  _134
REMARK   60  A    between atoms: _136  and  _138
REMARK   61  A    between atoms: _138  and  _139
REMARK   62  A    between atoms: _141  and  _143
REMARK   63  A    between atoms: _143  and  _144
REMARK   64  A    between atoms: _143  and  _146
REMARK   65  A    between atoms: _146  and  _147
REMARK   66  A    between atoms: _150  and  _152
REMARK   67  A    between atoms: _152  and  _153
REMARK   68  A    between atoms: _155  and  _157
REMARK   69  A    between atoms: _157  and  _158
REMARK   70  A    between atoms: _160  and  _162
REMARK   71  A    between atoms: _162  and  _163
REMARK   72  A    between atoms: _162  and  _165
REMARK   73  A    between atoms: _165  and  _166
REMARK   74  A    between atoms: _172  and  _174
REMARK   75  A    between atoms: _174  and  _175
REMARK   76  A    between atoms: _174  and  _177
REMARK   77  A    between atoms: _177  and  _178
REMARK   78  A    between atoms: _181  and  _183
REMARK   79  A    between atoms: _183  and  _184
REMARK   80  A    between atoms: _183  and  _186
REMARK   81  A    between atoms: _189  and  _191
REMARK   82  A    between atoms: _191  and  _192
REMARK   83  A    between atoms: _191  and  _194
REMARK   84  A    between atoms: _194  and  _195
REMARK   85  A    between atoms: _198  and  _200
REMARK   86  A    between atoms: _200  and  _201
REMARK   87  A    between atoms: _200  and  _203
REMARK   88  A    between atoms: _203  and  _204
REMARK   89  A    between atoms: _208  and  _209
REMARK   90  A    between atoms: _214  and  _216
REMARK   91  A    between atoms: _216  and  _217
REMARK   92  A    between atoms: _216  and  _219
REMARK   93  A    between atoms: _222  and  _224
REMARK   94  A    between atoms: _224  and  _225
REMARK   95  A    between atoms: _224  and  _227
REMARK   96  A    between atoms: _227  and  _228
REMARK   97  A    between atoms: _233  and  _235
REMARK   98  A    between atoms: _235  and  _236
REMARK   99  A    between atoms: _235  and  _238
REMARK  100  A    between atoms: _238  and  _239
REMARK  101  A    between atoms: _242  and  _244
REMARK  102  A    between atoms: _244  and  _245
REMARK  103  A    between atoms: _244  and  _247
REMARK  104  A    between atoms: _247  and  _248
REMARK  105  A    between atoms: _251  and  _253
REMARK  106  A    between atoms: _253  and  _254
REMARK  107  A    between atoms: _256  and  _258
REMARK  108  A    between atoms: _258  and  _259
REMARK  109  A    between atoms: _258  and  _261
REMARK  110  A    between atoms: _261  and  _262
REMARK  111  A    between atoms: _262  and  _263
REMARK  112  A    between atoms: _263  and  _264
REMARK  113  A    between atoms: _273  and  _275
REMARK  114  A    between atoms: _275  and  _276
REMARK  115  A    between atoms: _275  and  _278
REMARK  116  A    between atoms: _278  and  _279
REMARK  117  A    between atoms: _279  and  _280
REMARK  118  A    between atoms: _280  and  _281
REMARK  119  A    between atoms: _290  and  _292
REMARK  120  A    between atoms: _292  and  _293
REMARK  121  A    between atoms: _292  and  _295
REMARK  122  A    between atoms: _295  and  _296
REMARK  123  A    between atoms: _299  and  _301
REMARK  124  A    between atoms: _301  and  _302
REMARK  125  A    between atoms: _301  and  _304
REMARK  126  A    between atoms: _304  and  _305
REMARK  127  A    between atoms: _308  and  _310
REMARK  128  A    between atoms: _310  and  _311
REMARK  129  A    between atoms: _310  and  _313
REMARK  130  A    between atoms: _313  and  _314
REMARK  131  A    between atoms: _317  and  _319
REMARK  132  A    between atoms: _319  and  _320
REMARK  133  A    between atoms: _319  and  _322
REMARK  134  A    between atoms: _322  and  _323
REMARK  135  A    between atoms: _326  and  _328
REMARK  136  A    between atoms: _328  and  _329
REMARK  137  A    between atoms: _328  and  _331
REMARK  138  A    between atoms: _331  and  _332
REMARK  139  A    between atoms: _335  and  _337
REMARK  140  A    between atoms: _337  and  _338
REMARK  141  A    between atoms: _340  and  _342
REMARK  142  A    between atoms: _342  and  _343
REMARK  143  A    between atoms: _346  and  _348
REMARK  144  A    between atoms: _348  and  _349
REMARK  145  A    between atoms: _348  and  _351
REMARK  146  A    between atoms: _351  and  _352
REMARK  147  A    between atoms: _355  and  _357
REMARK  148  A    between atoms: _357  and  _358
REMARK  149  A    between atoms: _357  and  _360
REMARK  150  A    between atoms: _360  and  _361
REMARK  151  A    between atoms: _364  and  _366
REMARK  152  A    between atoms: _366  and  _367
REMARK  153  A    between atoms: _366  and  _369
REMARK  154  A    between atoms: _369  and  _370
REMARK  155  A    between atoms: _373  and  _375
REMARK  156  A    between atoms: _375  and  _376
REMARK  157  A    between atoms: _375  and  _378
REMARK  158  A    between atoms: _381  and  _383
REMARK  159  A    between atoms: _383  and  _384
REMARK  160  A    between atoms: _383  and  _386
REMARK  161  A    between atoms: _386  and  _387
REMARK  162  A    between atoms: _387  and  _388
REMARK  163  A    between atoms: _388  and  _389
REMARK  164  A    between atoms: _389  and  _390
REMARK  165  A    between atoms: _394  and  _396
REMARK  166  A    between atoms: _396  and  _397
REMARK  167  A    between atoms: _396  and  _399
REMARK  168  A    between atoms: _399  and  _400
REMARK  169  A    between atoms: _400  and  _401
REMARK  170  A    between atoms: _403  and  _405
REMARK  171  A    between atoms: _405  and  _406
REMARK  172  A    between atoms: _405  and  _408
REMARK  173  A    between atoms: _408  and  _409
REMARK  174  A    between atoms: _412  and  _414
REMARK  175  A    between atoms: _414  and  _415
REMARK  176  A    between atoms: _417  and  _419
REMARK  177  A    between atoms: _419  and  _420
REMARK  178  A    between atoms: _422  and  _424
REMARK  179  A    between atoms: _424  and  _425
REMARK  180  A    between atoms: _424  and  _427
REMARK  181  A    between atoms: _427  and  _428
REMARK  182  A    between atoms: _431  and  _433
REMARK  183  A    between atoms: _433  and  _434
REMARK  184  A    between atoms: _436  and  _438
REMARK  185  A    between atoms: _438  and  _439
REMARK  186  A    between atoms: _441  and  _443
REMARK  187  A    between atoms: _443  and  _444
REMARK  188  A    between atoms: _443  and  _446
REMARK  189  A    between atoms: _446  and  _447
REMARK  190  A    between atoms: _453  and  _455
REMARK  191  A    between atoms: _455  and  _456
REMARK  192  A    between atoms: _455  and  _458
REMARK  193  A    between atoms: _458  and  _459
REMARK  194  A    between atoms: _462  and  _464
REMARK  195  A    between atoms: _464  and  _465
REMARK  196  A    between atoms: _464  and  _467
REMARK  197  A    between atoms: _470  and  _472
REMARK  198  A    between atoms: _472  and  _473
REMARK  199  A    between atoms: _472  and  _475
REMARK  200  A    between atoms: _475  and  _476
REMARK  201  A    between atoms: _480  and  _481
REMARK  202  A    between atoms: _486  and  _488
REMARK  203  A    between atoms: _488  and  _489
REMARK  204  A    between atoms: _488  and  _491
REMARK  205  A    between atoms: _491  and  _492
REMARK  206  A    between atoms: _496  and  _497
REMARK  207  A    between atoms: _502  and  _504
REMARK  208  A    between atoms: _504  and  _505
REMARK  209  A    between atoms: _504  and  _507
REMARK  210  A    between atoms: _510  and  _512
REMARK  211  A    between atoms: _512  and  _513
REMARK  212  A    between atoms: _512  and  _515
REMARK  213  A    between atoms: _515  and  _516
REMARK  214  A    between atoms: _521  and  _523
REMARK  215  A    between atoms: _523  and  _524
REMARK  216  A    between atoms: _523  and  _526
REMARK  217  A    between atoms: _526  and  _527
REMARK  218  A    between atoms: _530  and  _532
REMARK  219  A    between atoms: _532  and  _533
REMARK  220  A    between atoms: _532  and  _535
REMARK  221  A    between atoms: _535  and  _536
REMARK  222  A    between atoms: _539  and  _541
REMARK  223  A    between atoms: _541  and  _542
REMARK  224  A    between atoms: _544  and  _546
REMARK  225  A    between atoms: _546  and  _547
REMARK  226  A    between atoms: _546  and  _549
REMARK  227  A    between atoms: _549  and  _550
REMARK  228  A    between atoms: _550  and  _551
REMARK  229  A    between atoms: _551  and  _552
REMARK                            x       y       z     vdW  Elec       q    Type
REMARK                         _______ _______ _______ _____ _____    ______ ____
ROOT
ATOM      1  NE  ARG A   1       6.801  30.390   0.583  0.00  0.00    -0.265 N 
ATOM      2  HE  ARG A   1       7.073  30.903   1.446  0.00  0.00    +0.259 HD
ATOM      3  CZ  ARG A   1       5.825  29.493   0.675  0.00  0.00    +0.342 C 
ATOM      4  NH2 ARG A   1       5.223  29.290   1.838  0.00  0.00    -0.292 N 
ATOM      5 HH21 ARG A   1       5.515  29.832   2.676  0.00  0.00    +0.255 HD
ATOM      6 HH22 ARG A   1       4.459  28.588   1.913  0.00  0.00    +0.255 HD
ATOM      7  NH1 ARG A   1       5.443  28.811  -0.398  0.00  0.00    -0.292 N 
ATOM      8 HH11 ARG A   1       4.679  28.109  -0.323  0.00  0.00    +0.255 HD
ATOM      9 HH12 ARG A   1       5.908  28.978  -1.313  0.00  0.00    +0.255 HD
ENDROOT
BRANCH   1  10
ATOM     10  CD  ARG A   1       7.513  30.701  -0.645  0.00  0.00    +0.174 C 
BRANCH  10  11
ATOM     11  CG  ARG A   1       8.390  31.924  -0.476  0.00  0.00    +0.045 C 
BRANCH  11  12
ATOM     12  CB  ARG A   1       9.220  32.170  -1.718  0.00  0.00    +0.029 C 
BRANCH  12  13
ATOM     13  CA  ARG A   1      10.158  33.370  -1.589  0.00  0.00    +0.133 C 
BRANCH  13  14
ATOM     14  N   ARG A   1       9.399  34.610  -1.509  0.00  0.00    -0.239 NA
ATOM     15  H   ARG A   1       8.363  34.596  -1.602  0.00  0.00    +0.142 HD
ENDBRANCH  13  14
BRANCH  13  16
ATOM     16  C   ARG A   1      11.049  33.465  -2.820  0.00  0.00    +0.224 C 
ATOM     17  O   ARG A   1      10.627  33.979  -3.855  0.00  0.00    -0.287 OA
ENDBRANCH  13  16
ENDBRANCH  12  13
ENDBRANCH  11  12
ENDBRANCH  10  11
ENDBRANCH   1  10
TORSDOF 6
REMARK  Name = ../refined-set-2016/1ec2/1ec2_pocket.pdb
REMARK  229 active torsions:
REMARK  status: ('A' for Active; 'I' for Inactive)
REMARK    1  A    between atoms: _1  and  _3
REMARK    2  A    between atoms: _3  and  _4
REMARK    3  A    between atoms: _3  and  _6
REMARK    4  A    between atoms: _6  and  _7
REMARK    5  A    between atoms: _7  and  _8
REMARK    6  A    between atoms: _8  and  _9
REMARK    7  A    between atoms: _18  and  _20
REMARK    8  A    between atoms: _20  and  _21
REMARK    9  A    between atoms: _20  and  _23
REMARK   10  A    between atoms: _23  and  _24
REMARK   11  A    between atoms: _27  and  _29
REMARK   12  A    between atoms: _29  and  _30
REMARK   13  A    between atoms: _29  and  _32
REMARK   14  A    between atoms: _32  and  _33
REMARK   15  A    between atoms: _36  and  _38
REMARK   16  A    between atoms: _38  and  _39
REMARK   17  A    between atoms: _38  and  _41
REMARK   18  A    between atoms: _41  and  _42
REMARK   19  A    between atoms: _45  and  _47
REMARK   20  A    between atoms: _47  and  _48
REMARK   21  A    between atoms: _47  and  _50
REMARK   22  A    between atoms: _50  and  _51
REMARK   23  A    between atoms: _54  and  _56
REMARK   24  A    between atoms: _56  and  _57
REMARK   25  A    between atoms: _59  and  _61
REMARK   26  A    between atoms: _61  and  _62
REMARK   27  A    between atoms: _65  and  _67
REMARK   28  A    between atoms: _67  and  _68
REMARK   29  A    between atoms: _67  and  _70
REMARK   30  A    between atoms: _70  and  _71
REMARK   31  A    between atoms: _74  and  _76
REMARK   32  A    between atoms: _76  and  _77
REMARK   33  A    between atoms: _76  and  _79
REMARK   34  A    between atoms: _79  and  _80
REMARK   35  A    between atoms: _83  and  _85
REMARK   36  A    between atoms: _85  and  _86
REMARK   37  A    between atoms: _85  and  _88
REMARK   38  A    between atoms: _88  and  _89
REMARK   39  A    between atoms: _92  and  _94
REMARK   40  A    between atoms: _94  and  _95
REMARK   41  A    between atoms: _94  and  _97
REMARK   42  A    between atoms: _100  and  _102
REMARK   43  A    between atoms: _102  and  _103
REMARK   44  A    between atoms: _102  and  _105
REMARK   45  A    between atoms: _105  and  _106
REMARK   46  A    between atoms: _106  and  _107
REMARK   47  A    between atoms: _107  and  _108
REMARK   48  A    between atoms: _108  and  _109
REMARK   49  A    between atoms: _113  and  _115
REMARK   50  A    between atoms: _115  and  _116
REMARK   51  A    between atoms: _115  and  _118
REMARK   52  A    between atoms: _118  and  _119
REMARK   53  A    between atoms: _119  and  _120
REMARK   54  A    between atoms: _122  and  _124
REMARK   55  A    between atoms: _124  and  _125
REMARK   56  A    between atoms: _124  and  _127
REMARK   57  A    between atoms: _127  and  _128
REMARK   58  A    between atoms: _131  and  _133
REMARK   59  A    between atoms: _133  and  _134
REMARK   60  A    between atoms: _136  and  _138
REMARK   61  A    between atoms: _138  and  _139
REMARK   62  A    between atoms: _141  and  _143
REMARK   63  A    between atoms: _143  and  _144
REMARK   64  A    between atoms: _143  and  _146
REMARK   65  A    between atoms: _146  and  _147
REMARK   66  A    between atoms: _150  and  _152
REMARK   67  A    between atoms: _152  and  _153
REMARK   68  A    between atoms: _155  and  _157
REMARK   69  A    between atoms: _157  and  _158
REMARK   70  A    between atoms: _160  and  _162
REMARK   71  A    between atoms: _162  and  _163
REMARK   72  A    between atoms: _162  and  _165
REMARK   73  A    between atoms: _165  and  _166
REMARK   74  A    between atoms: _172  and  _174
REMARK   75  A    between atoms: _174  and  _175
REMARK   76  A    between atoms: _174  and  _177
REMARK   77  A    between atoms: _177  and  _178
REMARK   78  A    between atoms: _181  and  _183
REMARK   79  A    between atoms: _183  and  _184
REMARK   80  A    between atoms: _183  and  _186
REMARK   81  A    between atoms: _189  and  _191
REMARK   82  A    between atoms: _191  and  _192
REMARK   83  A    between atoms: _191  and  _194
REMARK   84  A    between atoms: _194  and  _195
REMARK   85  A    between atoms: _198  and  _200
REMARK   86  A    between atoms: _200  and  _201
REMARK   87  A    between atoms: _200  and  _203
REMARK   88  A    between atoms: _203  and  _204
REMARK   89  A    between atoms: _208  and  _209
REMARK   90  A    between atoms: _214  and  _216
REMARK   91  A    between atoms: _216  and  _217
REMARK   92  A    between atoms: _216  and  _219
REMARK   93  A    between atoms: _222  and  _224
REMARK   94  A    between atoms: _224  and  _225
REMARK   95  A    between atoms: _224  and  _227
REMARK   96  A    between atoms: _227  and  _228
REMARK   97  A    between atoms: _233  and  _235
REMARK   98  A    between atoms: _235  and  _236
REMARK   99  A    between atoms: _235  and  _238
REMARK  100  A    between atoms: _238  and  _239
REMARK  101  A    between atoms: _242  and  _244
REMARK  102  A    between atoms: _244  and  _245
REMARK  103  A    between atoms: _244  and  _247
REMARK  104  A    between atoms: _247  and  _248
REMARK  105  A    between atoms: _251  and  _253
REMARK  106  A    between atoms: _253  and  _254
REMARK  107  A    between atoms: _256  and  _258
REMARK  108  A    between atoms: _258  and  _259
REMARK  109  A    between atoms: _258  and  _261
REMARK  110  A    between atoms: _261  and  _262
REMARK  111  A    between atoms: _262  and  _263
REMARK  112  A    between atoms: _263  and  _264
REMARK  113  A    between atoms: _273  and  _275
REMARK  114  A    between atoms: _275  and  _276
REMARK  115  A    between atoms: _275  and  _278
REMARK  116  A    between atoms: _278  and  _279
REMARK  117  A    between atoms: _279  and  _280
REMARK  118  A    between atoms: _280  and  _281
REMARK  119  A    between atoms: _290  and  _292
REMARK  120  A    between atoms: _292  and  _293
REMARK  121  A    between atoms: _292  and  _295
REMARK  122  A    between atoms: _295  and  _296
REMARK  123  A    between atoms: _299  and  _301
REMARK  124  A    between atoms: _301  and  _302
REMARK  125  A    between atoms: _301  and  _304
REMARK  126  A    between atoms: _304  and  _305
REMARK  127  A    between atoms: _308  and  _310
REMARK  128  A    between atoms: _310  and  _311
REMARK  129  A    between atoms: _310  and  _313
REMARK  130  A    between atoms: _313  and  _314
REMARK  131  A    between atoms: _317  and  _319
REMARK  132  A    between atoms: _319  and  _320
REMARK  133  A    between atoms: _319  and  _322
REMARK  134  A    between atoms: _322  and  _323
REMARK  135  A    between atoms: _326  and  _328
REMARK  136  A    between atoms: _328  and  _329
REMARK  137  A    between atoms: _328  and  _331
REMARK  138  A    between atoms: _331  and  _332
REMARK  139  A    between atoms: _335  and  _337
REMARK  140  A    between atoms: _337  and  _338
REMARK  141  A    between atoms: _340  and  _342
REMARK  142  A    between atoms: _342  and  _343
REMARK  143  A    between atoms: _346  and  _348
REMARK  144  A    between atoms: _348  and  _349
REMARK  145  A    between atoms: _348  and  _351
REMARK  146  A    between atoms: _351  and  _352
REMARK  147  A    between atoms: _355  and  _357
REMARK  148  A    between atoms: _357  and  _358
REMARK  149  A    between atoms: _357  and  _360
REMARK  150  A    between atoms: _360  and  _361
REMARK  151  A    between atoms: _364  and  _366
REMARK  152  A    between atoms: _366  and  _367
REMARK  153  A    between atoms: _366  and  _369
REMARK  154  A    between atoms: _369  and  _370
REMARK  155  A    between atoms: _373  and  _375
REMARK  156  A    between atoms: _375  and  _376
REMARK  157  A    between atoms: _375  and  _378
REMARK  158  A    between atoms: _381  and  _383
REMARK  159  A    between atoms: _383  and  _384
REMARK  160  A    between atoms: _383  and  _386
REMARK  161  A    between atoms: _386  and  _387
REMARK  162  A    between atoms: _387  and  _388
REMARK  163  A    between atoms: _388  and  _389
REMARK  164  A    between atoms: _389  and  _390
REMARK  165  A    between atoms: _394  and  _396
REMARK  166  A    between atoms: _396  and  _397
REMARK  167  A    between atoms: _396  and  _399
REMARK  168  A    between atoms: _399  and  _400
REMARK  169  A    between atoms: _400  and  _401
REMARK  170  A    between atoms: _403  and  _405
REMARK  171  A    between atoms: _405  and  _406
REMARK  172  A    between atoms: _405  and  _408
REMARK  173  A    between atoms: _408  and  _409
REMARK  174  A    between atoms: _412  and  _414
REMARK  175  A    between atoms: _414  and  _415
REMARK  176  A    between atoms: _417  and  _419
REMARK  177  A    between atoms: _419  and  _420
REMARK  178  A    between atoms: _422  and  _424
REMARK  179  A    between atoms: _424  and  _425
REMARK  180  A    between atoms: _424  and  _427
REMARK  181  A    between atoms: _427  and  _428
REMARK  182  A    between atoms: _431  and  _433
REMARK  183  A    between atoms: _433  and  _434
REMARK  184  A    between atoms: _436  and  _438
REMARK  185  A    between atoms: _438  and  _439
REMARK  186  A    between atoms: _441  and  _443
REMARK  187  A    between atoms: _443  and  _444
REMARK  188  A    between atoms: _443  and  _446
REMARK  189  A    between atoms: _446  and  _447
REMARK  190  A    between atoms: _453  and  _455
REMARK  191  A    between atoms: _455  and  _456
REMARK  192  A    between atoms: _455  and  _458
REMARK  193  A    between atoms: _458  and  _459
REMARK  194  A    between atoms: _462  and  _464
REMARK  195  A    between atoms: _464  and  _465
REMARK  196  A    between atoms: _464  and  _467
REMARK  197  A    between atoms: _470  and  _472
REMARK  198  A    between atoms: _472  and  _473
REMARK  199  A    between atoms: _472  and  _475
REMARK  200  A    between atoms: _475  and  _476
REMARK  201  A    between atoms: _480  and  _481
REMARK  202  A    between atoms: _486  and  _488
REMARK  203  A    between atoms: _488  and  _489
REMARK  204  A    between atoms: _488  and  _491
REMARK  205  A    between atoms: _491  and  _492
REMARK  206  A    between atoms: _496  and  _497
REMARK  207  A    between atoms: _502  and  _504
REMARK  208  A    between atoms: _504  and  _505
REMARK  209  A    between atoms: _504  and  _507
REMARK  210  A    between atoms: _510  and  _512
REMARK  211  A    between atoms: _512  and  _513
REMARK  212  A    between atoms: _512  and  _515
REMARK  213  A    between atoms: _515  and  _516
REMARK  214  A    between atoms: _521  and  _523
REMARK  215  A    between atoms: _523  and  _524
REMARK  216  A    between atoms: _523  and  _526
REMARK  217  A    between atoms: _526  and  _527
REMARK  218  A    between atoms: _530  and  _532
REMARK  219  A    between atoms: _532  and  _533
REMARK  220  A    between atoms: _532  and  _535
REMARK  221  A    between atoms: _535  and  _536
REMARK  222  A    between atoms: _539  and  _541
REMARK  223  A    between atoms: _541  and  _542
REMARK  224  A    between atoms: _544  and  _546
REMARK  225  A    between atoms: _546  and  _547
REMARK  226  A    between atoms: _546  and  _549
REMARK  227  A    between atoms: _549  and  _550
REMARK  228  A    between atoms: _550  and  _551
REMARK  229  A    between atoms: _551  and  _552
REMARK                            x       y       z     vdW  Elec       q    Type
REMARK                         _______ _______ _______ _____ _____    ______ ____
ROOT
ATOM      1  CA  LEU A   1      11.453  31.015  -6.516  0.00  0.00    +0.133 C 
ENDROOT
BRANCH   1   2
ATOM      2  N   LEU A   1      11.871  32.025  -5.558  0.00  0.00    -0.239 NA
ATOM      3  H   LEU A   1      11.296  32.886  -5.461  0.00  0.00    +0.142 HD
ENDBRANCH   1   2
BRANCH   1   4
ATOM      4  C   LEU A   1      12.046  31.311  -7.877  0.00  0.00    +0.224 C 
ATOM      5  O   LEU A   1      11.976  32.434  -8.357  0.00  0.00    -0.287 OA
ENDBRANCH   1   4
BRANCH   1   6
ATOM      6  CB  LEU A   1       9.928  31.002  -6.632  0.00  0.00    +0.025 C 
BRANCH   6   7
ATOM      7  CG  LEU A   1       9.099  30.462  -5.462  0.00  0.00    +0.002 C 
ATOM      8  CD2 LEU A   1       9.314  28.961  -5.345  0.00  0.00    +0.000 C 
ATOM      9  CD1 LEU A   1       7.620  30.774  -5.680  0.00  0.00    +0.000 C 
ENDBRANCH   6   7
ENDBRANCH   1   6
TORSDOF 4
REMARK  Name = ../refined-set-2016/1ec2/1ec2_pocket.pdb
REMARK  229 active torsions:
REMARK  status: ('A' for Active; 'I' for Inactive)
REMARK    1  A    between atoms: _1  and  _3
REMARK    2  A    between atoms: _3  and  _4
REMARK    3  A    between atoms: _3  and  _6
REMARK    4  A    between atoms: _6  and  _7
REMARK    5  A    between atoms: _7  and  _8
REMARK    6  A    between atoms: _8  and  _9
REMARK    7  A    between atoms: _18  and  _20
REMARK    8  A    between atoms: _20  and  _21
REMARK    9  A    between atoms: _20  and  _23
REMARK   10  A    between atoms: _23  and  _24
REMARK   11  A    between atoms: _27  and  _29
REMARK   12  A    between atoms: _29  and  _30
REMARK   13  A    between atoms: _29  and  _32
REMARK   14  A    between atoms: _32  and  _33
REMARK   15  A    between atoms: _36  and  _38
REMARK   16  A    between atoms: _38  and  _39
REMARK   17  A    between atoms: _38  and  _41
REMARK   18  A    between atoms: _41  and  _42
REMARK   19  A    between atoms: _45  and  _47
REMARK   20  A    between atoms: _47  and  _48
REMARK   21  A    between atoms: _47  and  _50
REMARK   22  A    between atoms: _50  and  _51
REMARK   23  A    between atoms: _54  and  _56
REMARK   24  A    between atoms: _56  and  _57
REMARK   25  A    between atoms: _59  and  _61
REMARK   26  A    between atoms: _61  and  _62
REMARK   27  A    between atoms: _65  and  _67
REMARK   28  A    between atoms: _67  and  _68
REMARK   29  A    between atoms: _67  and  _70
REMARK   30  A    between atoms: _70  and  _71
REMARK   31  A    between atoms: _74  and  _76
REMARK   32  A    between atoms: _76  and  _77
REMARK   33  A    between atoms: _76  and  _79
REMARK   34  A    between atoms: _79  and  _80
REMARK   35  A    between atoms: _83  and  _85
REMARK   36  A    between atoms: _85  and  _86
REMARK   37  A    between atoms: _85  and  _88
REMARK   38  A    between atoms: _88  and  _89
REMARK   39  A    between atoms: _92  and  _94
REMARK   40  A    between atoms: _94  and  _95
REMARK   41  A    between atoms: _94  and  _97
REMARK   42  A    between atoms: _100  and  _102
REMARK   43  A    between atoms: _102  and  _103
REMARK   44  A    between atoms: _102  and  _105
REMARK   45  A    between atoms: _105  and  _106
REMARK   46  A    between atoms: _106  and  _107
REMARK   47  A    between atoms: _107  and  _108
REMARK   48  A    between atoms: _108  and  _109
REMARK   49  A    between atoms: _113  and  _115
REMARK   50  A    between atoms: _115  and  _116
REMARK   51  A    between atoms: _115  and  _118
REMARK   52  A    between atoms: _118  and  _119
REMARK   53  A    between atoms: _119  and  _120
REMARK   54  A    between atoms: _122  and  _124
REMARK   55  A    between atoms: _124  and  _125
REMARK   56  A    between atoms: _124  and  _127
REMARK   57  A    between atoms: _127  and  _128
REMARK   58  A    between atoms: _131  and  _133
REMARK   59  A    between atoms: _133  and  _134
REMARK   60  A    between atoms: _136  and  _138
REMARK   61  A    between atoms: _138  and  _139
REMARK   62  A    between atoms: _141  and  _143
REMARK   63  A    between atoms: _143  and  _144
REMARK   64  A    between atoms: _143  and  _146
REMARK   65  A    between atoms: _146  and  _147
REMARK   66  A    between atoms: _150  and  _152
REMARK   67  A    between atoms: _152  and  _153
REMARK   68  A    between atoms: _155  and  _157
REMARK   69  A    between atoms: _157  and  _158
REMARK   70  A    between atoms: _160  and  _162
REMARK   71  A    between atoms: _162  and  _163
REMARK   72  A    between atoms: _162  and  _165
REMARK   73  A    between atoms: _165  and  _166
REMARK   74  A    between atoms: _172  and  _174
REMARK   75  A    between atoms: _174  and  _175
REMARK   76  A    between atoms: _174  and  _177
REMARK   77  A    between atoms: _177  and  _178
REMARK   78  A    between atoms: _181  and  _183
REMARK   79  A    between atoms: _183  and  _184
REMARK   80  A    between atoms: _183  and  _186
REMARK   81  A    between atoms: _189  and  _191
REMARK   82  A    between atoms: _191  and  _192
REMARK   83  A    between atoms: _191  and  _194
REMARK   84  A    between atoms: _194  and  _195
REMARK   85  A    between atoms: _198  and  _200
REMARK   86  A    between atoms: _200  and  _201
REMARK   87  A    between atoms: _200  and  _203
REMARK   88  A    between atoms: _203  and  _204
REMARK   89  A    between atoms: _208  and  _209
REMARK   90  A    between atoms: _214  and  _216
REMARK   91  A    between atoms: _216  and  _217
REMARK   92  A    between atoms: _216  and  _219
REMARK   93  A    between atoms: _222  and  _224
REMARK   94  A    between atoms: _224  and  _225
REMARK   95  A    between atoms: _224  and  _227
REMARK   96  A    between atoms: _227  and  _228
REMARK   97  A    between atoms: _233  and  _235
REMARK   98  A    between atoms: _235  and  _236
REMARK   99  A    between atoms: _235  and  _238
REMARK  100  A    between atoms: _238  and  _239
REMARK  101  A    between atoms: _242  and  _244
REMARK  102  A    between atoms: _244  and  _245
REMARK  103  A    between atoms: _244  and  _247
REMARK  104  A    between atoms: _247  and  _248
REMARK  105  A    between atoms: _251  and  _253
REMARK  106  A    between atoms: _253  and  _254
REMARK  107  A    between atoms: _256  and  _258
REMARK  108  A    between atoms: _258  and  _259
REMARK  109  A    between atoms: _258  and  _261
REMARK  110  A    between atoms: _261  and  _262
REMARK  111  A    between atoms: _262  and  _263
REMARK  112  A    between atoms: _263  and  _264
REMARK  113  A    between atoms: _273  and  _275
REMARK  114  A    between atoms: _275  and  _276
REMARK  115  A    between atoms: _275  and  _278
REMARK  116  A    between atoms: _278  and  _279
REMARK  117  A    between atoms: _279  and  _280
REMARK  118  A    between atoms: _280  and  _281
REMARK  119  A    between atoms: _290  and  _292
REMARK  120  A    between atoms: _292  and  _293
REMARK  121  A    between atoms: _292  and  _295
REMARK  122  A    between atoms: _295  and  _296
REMARK  123  A    between atoms: _299  and  _301
REMARK  124  A    between atoms: _301  and  _302
REMARK  125  A    between atoms: _301  and  _304
REMARK  126  A    between atoms: _304  and  _305
REMARK  127  A    between atoms: _308  and  _310
REMARK  128  A    between atoms: _310  and  _311
REMARK  129  A    between atoms: _310  and  _313
REMARK  130  A    between atoms: _313  and  _314
REMARK  131  A    between atoms: _317  and  _319
REMARK  132  A    between atoms: _319  and  _320
REMARK  133  A    between atoms: _319  and  _322
REMARK  134  A    between atoms: _322  and  _323
REMARK  135  A    between atoms: _326  and  _328
REMARK  136  A    between atoms: _328  and  _329
REMARK  137  A    between atoms: _328  and  _331
REMARK  138  A    between atoms: _331  and  _332
REMARK  139  A    between atoms: _335  and  _337
REMARK  140  A    between atoms: _337  and  _338
REMARK  141  A    between atoms: _340  and  _342
REMARK  142  A    between atoms: _342  and  _343
REMARK  143  A    between atoms: _346  and  _348
REMARK  144  A    between atoms: _348  and  _349
REMARK  145  A    between atoms: _348  and  _351
REMARK  146  A    between atoms: _351  and  _352
REMARK  147  A    between atoms: _355  and  _357
REMARK  148  A    between atoms: _357  and  _358
REMARK  149  A    between atoms: _357  and  _360
REMARK  150  A    between atoms: _360  and  _361
REMARK  151  A    between atoms: _364  and  _366
REMARK  152  A    between atoms: _366  and  _367
REMARK  153  A    between atoms: _366  and  _369
REMARK  154  A    between atoms: _369  and  _370
REMARK  155  A    between atoms: _373  and  _375
REMARK  156  A    between atoms: _375  and  _376
REMARK  157  A    between atoms: _375  and  _378
REMARK  158  A    between atoms: _381  and  _383
REMARK  159  A    between atoms: _383  and  _384
REMARK  160  A    between atoms: _383  and  _386
REMARK  161  A    between atoms: _386  and  _387
REMARK  162  A    between atoms: _387  and  _388
REMARK  163  A    between atoms: _388  and  _389
REMARK  164  A    between atoms: _389  and  _390
REMARK  165  A    between atoms: _394  and  _396
REMARK  166  A    between atoms: _396  and  _397
REMARK  167  A    between atoms: _396  and  _399
REMARK  168  A    between atoms: _399  and  _400
REMARK  169  A    between atoms: _400  and  _401
REMARK  170  A    between atoms: _403  and  _405
REMARK  171  A    between atoms: _405  and  _406
REMARK  172  A    between atoms: _405  and  _408
REMARK  173  A    between atoms: _408  and  _409
REMARK  174  A    between atoms: _412  and  _414
REMARK  175  A    between atoms: _414  and  _415
REMARK  176  A    between atoms: _417  and  _419
REMARK  177  A    between atoms: _419  and  _420
REMARK  178  A    between atoms: _422  and  _424
REMARK  179  A    between atoms: _424  and  _425
REMARK  180  A    between atoms: _424  and  _427
REMARK  181  A    between atoms: _427  and  _428
REMARK  182  A    between atoms: _431  and  _433
REMARK  183  A    between atoms: _433  and  _434
REMARK  184  A    between atoms: _436  and  _438
REMARK  185  A    between atoms: _438  and  _439
REMARK  186  A    between atoms: _441  and  _443
REMARK  187  A    between atoms: _443  and  _444
REMARK  188  A    between atoms: _443  and  _446
REMARK  189  A    between atoms: _446  and  _447
REMARK  190  A    between atoms: _453  and  _455
REMARK  191  A    between atoms: _455  and  _456
REMARK  192  A    between atoms: _455  and  _458
REMARK  193  A    between atoms: _458  and  _459
REMARK  194  A    between atoms: _462  and  _464
REMARK  195  A    between atoms: _464  and  _465
REMARK  196  A    between atoms: _464  and  _467
REMARK  197  A    between atoms: _470  and  _472
REMARK  198  A    between atoms: _472  and  _473
REMARK  199  A    between atoms: _472  and  _475
REMARK  200  A    between atoms: _475  and  _476
REMARK  201  A    between atoms: _480  and  _481
REMARK  202  A    between atoms: _486  and  _488
REMARK  203  A    between atoms: _488  and  _489
REMARK  204  A    between atoms: _488  and  _491
REMARK  205  A    between atoms: _491  and  _492
REMARK  206  A    between atoms: _496  and  _497
REMARK  207  A    between atoms: _502  and  _504
REMARK  208  A    between atoms: _504  and  _505
REMARK  209  A    between atoms: _504  and  _507
REMARK  210  A    between atoms: _510  and  _512
REMARK  211  A    between atoms: _512  and  _513
REMARK  212  A    between atoms: _512  and  _515
REMARK  213  A    between atoms: _515  and  _516
REMARK  214  A    between atoms: _521  and  _523
REMARK  215  A    between atoms: _523  and  _524
REMARK  216  A    between atoms: _523  and  _526
REMARK  217  A    between atoms: _526  and  _527
REMARK  218  A    between atoms: _530  and  _532
REMARK  219  A    between atoms: _532  and  _533
REMARK  220  A    between atoms: _532  and  _535
REMARK  221  A    between atoms: _535  and  _536
REMARK  222  A    between atoms: _539  and  _541
REMARK  223  A    between atoms: _541  and  _542
REMARK  224  A    between atoms: _544  and  _546
REMARK  225  A    between atoms: _546  and  _547
REMARK  226  A    between atoms: _546  and  _549
REMARK  227  A    between atoms: _549  and  _550
REMARK  228  A    between atoms: _550  and  _551
REMARK  229  A    between atoms: _551  and  _552
REMARK                            x       y       z     vdW  Elec       q    Type
REMARK                         _______ _______ _______ _____ _____    ______ ____
ROOT
ATOM      1  C   GLY A   5      18.600  24.200   4.285  0.00  0.00    +0.243 C 
ATOM      2  O   GLY A   5      18.330  23.371   5.163  0.00  0.00    -0.273 OA
ATOM      3  N   ALA A   6      18.830  23.858   3.022  0.00  0.00    -0.297 N 
ATOM      4  H   ALA A   6      19.061  24.596   2.327  0.00  0.00    +0.150 HD
ENDROOT
BRANCH   3   5
ATOM      5  CA  ALA A   6      18.764  22.467   2.594  0.00  0.00    +0.149 C 
ATOM      6  CB  ALA A   6      17.725  22.318   1.475  0.00  0.00    +0.031 C 
BRANCH   5   7
ATOM      7  C   ALA A   6      20.113  21.952   2.120  0.00  0.00    +0.241 C 
ATOM      8  N   ASP A   7      20.576  20.858   2.721  0.00  0.00    -0.297 N 
ATOM      9  H   ASP A   7      20.030  20.424   3.492  0.00  0.00    +0.150 HD
ATOM     10  O   ALA A   6      20.738  22.542   1.241  0.00  0.00    -0.273 OA
BRANCH   8  11
ATOM     11  CA  ASP A   7      21.841  20.263   2.309  0.00  0.00    +0.160 C 
BRANCH  11  12
ATOM     12  C   ASP A   7      21.662  19.680   0.901  0.00  0.00    +0.241 C 
ATOM     13  N   ASP A   8      20.496  19.084   0.672  0.00  0.00    -0.297 N 
ATOM     14  H   ASP A   8      19.772  19.095   1.418  0.00  0.00    +0.150 HD
ATOM     15  O   ASP A   7      22.555  19.763   0.054  0.00  0.00    -0.273 OA
BRANCH  13  16
ATOM     16  CA  ASP A   8      20.197  18.415  -0.590  0.00  0.00    +0.160 C 
BRANCH  16  17
ATOM     17  C   ASP A   8      19.099  19.057  -1.424  0.00  0.00    +0.241 C 
ATOM     18  O   ASP A   8      18.319  19.870  -0.939  0.00  0.00    -0.273 OA
ATOM     19  N   THR A   9      19.034  18.638  -2.683  0.00  0.00    -0.295 N 
ATOM     20  H   THR A   9      19.730  17.942  -3.019  0.00  0.00    +0.150 HD
BRANCH  19  21
ATOM     21  CA  THR A   9      18.022  19.121  -3.605  0.00  0.00    +0.176 C 
BRANCH  21  22
ATOM     22  C   THR A   9      16.916  18.074  -3.645  0.00  0.00    +0.243 C 
ATOM     23  N   VAL A  10      15.690  18.507  -3.381  0.00  0.00    -0.298 N 
ATOM     24  H   VAL A  10      15.534  19.518  -3.192  0.00  0.00    +0.150 HD
ATOM     25  O   THR A   9      17.167  16.891  -3.910  0.00  0.00    -0.273 OA
BRANCH  23  26
ATOM     26  CA  VAL A  10      14.556  17.589  -3.351  0.00  0.00    +0.137 C 
BRANCH  26  27
ATOM     27  CB  VAL A  10      14.008  17.459  -1.919  0.00  0.00    +0.026 C 
ATOM     28  CG2 VAL A  10      15.167  17.355  -0.936  0.00  0.00    +0.002 C 
ATOM     29  CG1 VAL A  10      13.089  16.243  -1.819  0.00  0.00    +0.002 C 
ENDBRANCH  26  27
BRANCH  26  30
ATOM     30  C   VAL A  10      13.443  18.086  -4.258  0.00  0.00    +0.227 C 
ATOM     31  O   VAL A  10      12.994  19.217  -4.128  0.00  0.00    -0.286 OA
ENDBRANCH  26  30
ENDBRANCH  23  26
ENDBRANCH  21  22
BRANCH  21  32
ATOM     32  CB  THR A   9      18.613  19.315  -4.997  0.00  0.00    +0.137 C 
ATOM     33  CG2 THR A   9      17.507  19.545  -6.028  0.00  0.00    +0.034 C 
BRANCH  32  34
ATOM     34  OG1 THR A   9      19.507  20.439  -4.968  0.00  0.00    -0.382 OA
ATOM     35  HG1 THR A   9      20.232  20.266  -4.316  0.00  0.00    +0.210 HD
ENDBRANCH  32  34
ENDBRANCH  21  32
ENDBRANCH  19  21
ENDBRANCH  16  17
BRANCH  16  36
ATOM     36  CB  ASP A   8      19.769  16.970  -0.326  0.00  0.00    +0.143 C 
BRANCH  36  37
ATOM     37  CG  ASP A   8      20.757  16.203   0.533  0.00  0.00    +0.367 C 
ATOM     38  OD2 ASP A   8      20.306  15.474   1.440  0.00  0.00    -0.246 OA
ATOM     39  OD1 ASP A   8      21.972  16.314   0.290  0.00  0.00    -0.246 OA
ENDBRANCH  36  37
ENDBRANCH  16  36
ENDBRANCH  13  16
ENDBRANCH  11  12
BRANCH  11  40
ATOM     40  CB  ASP A   7      22.238  19.095   3.222  0.00  0.00    +0.143 C 
BRANCH  40  41
ATOM     41  CG  ASP A   7      22.526  19.511   4.654  0.00  0.00    +0.367 C 
ATOM     42  OD2 ASP A   7      22.665  18.591   5.497  0.00  0.00    -0.246 OA
ATOM     43  OD1 ASP A   7      22.634  20.719   4.942  0.00  0.00    -0.246 OA
ENDBRANCH  40  41
ENDBRANCH  11  40
ENDBRANCH   8  11
ENDBRANCH   5   7
ENDBRANCH   3   5
BRANCH   1  44
ATOM     44  CA  GLY A   5      18.694  25.685   4.614  0.00  0.00    +0.176 C 
BRANCH  44  47
ATOM     45  C   THR A   4      20.088  26.846   3.017  0.00  0.00    +0.243 C 
ATOM     46  O   THR A   4      21.111  26.437   3.571  0.00  0.00    -0.273 OA
ATOM     47  N   GLY A   5      18.867  26.531   3.443  0.00  0.00    -0.295 N 
ATOM     48  H   GLY A   5      18.033  26.891   2.937  0.00  0.00    +0.150 HD
BRANCH  45  49
ATOM     49  CA  THR A   4      20.184  27.745   1.777  0.00  0.00    +0.176 C 
BRANCH  49  51
ATOM     50  C   ASP A   3      18.405  26.848   0.414  0.00  0.00    +0.241 C 
ATOM     51  N   THR A   4      18.924  27.884   1.065  0.00  0.00    -0.295 N 
ATOM     52  H   THR A   4      18.427  28.798   1.065  0.00  0.00    +0.150 HD
ATOM     53  O   ASP A   3      18.929  25.736   0.418  0.00  0.00    -0.273 OA
BRANCH  50  54
ATOM     54  CA  ASP A   3      17.083  27.077  -0.313  0.00  0.00    +0.160 C 
BRANCH  54  57
ATOM     55  C   LEU A   2      16.690  28.461  -2.264  0.00  0.00    +0.241 C 
ATOM     56  O   LEU A   2      16.269  29.394  -1.578  0.00  0.00    -0.273 OA
ATOM     57  N   ASP A   3      17.156  27.333  -1.742  0.00  0.00    -0.297 N 
ATOM     58  H   ASP A   3      17.581  26.619  -2.367  0.00  0.00    +0.150 HD
BRANCH  55  59
ATOM     59  CA  LEU A   2      16.700  28.549  -3.791  0.00  0.00    +0.149 C 
BRANCH  59  62
ATOM     60  C   LEU A   1      14.578  27.392  -3.998  0.00  0.00    +0.238 C 
ATOM     61  O   LEU A   1      15.127  26.310  -3.773  0.00  0.00    -0.274 OA
ATOM     62  N   LEU A   2      15.264  28.535  -4.071  0.00  0.00    -0.297 N 
ATOM     63  H   LEU A   2      14.777  29.417  -4.327  0.00  0.00    +0.150 HD
BRANCH  60  64
ATOM     64  CA  LEU A   1      13.062  27.457  -4.231  0.00  0.00    +0.145 C 
BRANCH  64  65
ATOM     65  N   LEU A   1      12.610  26.520  -5.239  0.00  0.00    -0.238 NA
ATOM     66  H   LEU A   1      12.510  25.518  -4.980  0.00  0.00    +0.142 HD
ENDBRANCH  64  65
BRANCH  64  67
ATOM     67  CB  LEU A   1      12.297  27.130  -2.942  0.00  0.00    +0.026 C 
BRANCH  67  68
ATOM     68  CG  LEU A   1      12.297  28.013  -1.699  0.00  0.00    +0.002 C 
ATOM     69  CD2 LEU A   1      11.437  27.338  -0.622  0.00  0.00    +0.000 C 
ATOM     70  CD1 LEU A   1      11.739  29.389  -2.031  0.00  0.00    +0.000 C 
ENDBRANCH  67  68
ENDBRANCH  64  67
ENDBRANCH  60  64
ENDBRANCH  59  62
BRANCH  59  71
ATOM     71  CB  LEU A   2      17.337  29.848  -4.279  0.00  0.00    +0.029 C 
BRANCH  71  72
ATOM     72  CG  LEU A   2      17.180  30.057  -5.790  0.00  0.00    +0.002 C 
ATOM     73  CD2 LEU A   2      17.807  31.376  -6.194  0.00  0.00    +0.000 C 
ATOM     74  CD1 LEU A   2      17.833  28.901  -6.547  0.00  0.00    +0.000 C 
ENDBRANCH  71  72
ENDBRANCH  59  71
ENDBRANCH  55  59
ENDBRANCH  54  57
BRANCH  54  75
ATOM     75  CB  ASP A   3      16.183  25.857  -0.125  0.00  0.00    +0.143 C 
BRANCH  75  76
ATOM     76  CG  ASP A   3      15.716  25.685   1.293  0.00  0.00    +0.367 C 
ATOM     77  OD2 ASP A   3      16.376  26.217   2.212  0.00  0.00    -0.246 OA
ATOM     78  OD1 ASP A   3      14.683  25.007   1.473  0.00  0.00    -0.246 OA
ENDBRANCH  75  76
ENDBRANCH  54  75
ENDBRANCH  50  54
ENDBRANCH  49  51
BRANCH  49  79
ATOM     79  CB  THR A   4      20.745  29.118   2.187  0.00  0.00    +0.137 C 
ATOM     80  CG2 THR A   4      21.046  29.952   0.944  0.00  0.00    +0.034 C 
BRANCH  79  81
ATOM     81  OG1 THR A   4      19.789  29.809   3.003  0.00  0.00    -0.382 OA
ATOM     82  HG1 THR A   4      19.603  29.275   3.815  0.00  0.00    +0.210 HD
ENDBRANCH  79  81
ENDBRANCH  49  79
ENDBRANCH  45  49
ENDBRANCH  44  47
ENDBRANCH   1  44
TORSDOF 35
REMARK  Name = ../refined-set-2016/1ec2/1ec2_pocket.pdb
REMARK  229 active torsions:
REMARK  status: ('A' for Active; 'I' for Inactive)
REMARK    1  A    between atoms: _1  and  _3
REMARK    2  A    between atoms: _3  and  _4
REMARK    3  A    between atoms: _3  and  _6
REMARK    4  A    between atoms: _6  and  _7
REMARK    5  A    between atoms: _7  and  _8
REMARK    6  A    between atoms: _8  and  _9
REMARK    7  A    between atoms: _18  and  _20
REMARK    8  A    between atoms: _20  and  _21
REMARK    9  A    between atoms: _20  and  _23
REMARK   10  A    between atoms: _23  and  _24
REMARK   11  A    between atoms: _27  and  _29
REMARK   12  A    between atoms: _29  and  _30
REMARK   13  A    between atoms: _29  and  _32
REMARK   14  A    between atoms: _32  and  _33
REMARK   15  A    between atoms: _36  and  _38
REMARK   16  A    between atoms: _38  and  _39
REMARK   17  A    between atoms: _38  and  _41
REMARK   18  A    between atoms: _41  and  _42
REMARK   19  A    between atoms: _45  and  _47
REMARK   20  A    between atoms: _47  and  _48
REMARK   21  A    between atoms: _47  and  _50
REMARK   22  A    between atoms: _50  and  _51
REMARK   23  A    between atoms: _54  and  _56
REMARK   24  A    between atoms: _56  and  _57
REMARK   25  A    between atoms: _59  and  _61
REMARK   26  A    between atoms: _61  and  _62
REMARK   27  A    between atoms: _65  and  _67
REMARK   28  A    between atoms: _67  and  _68
REMARK   29  A    between atoms: _67  and  _70
REMARK   30  A    between atoms: _70  and  _71
REMARK   31  A    between atoms: _74  and  _76
REMARK   32  A    between atoms: _76  and  _77
REMARK   33  A    between atoms: _76  and  _79
REMARK   34  A    between atoms: _79  and  _80
REMARK   35  A    between atoms: _83  and  _85
REMARK   36  A    between atoms: _85  and  _86
REMARK   37  A    between atoms: _85  and  _88
REMARK   38  A    between atoms: _88  and  _89
REMARK   39  A    between atoms: _92  and  _94
REMARK   40  A    between atoms: _94  and  _95
REMARK   41  A    between atoms: _94  and  _97
REMARK   42  A    between atoms: _100  and  _102
REMARK   43  A    between atoms: _102  and  _103
REMARK   44  A    between atoms: _102  and  _105
REMARK   45  A    between atoms: _105  and  _106
REMARK   46  A    between atoms: _106  and  _107
REMARK   47  A    between atoms: _107  and  _108
REMARK   48  A    between atoms: _108  and  _109
REMARK   49  A    between atoms: _113  and  _115
REMARK   50  A    between atoms: _115  and  _116
REMARK   51  A    between atoms: _115  and  _118
REMARK   52  A    between atoms: _118  and  _119
REMARK   53  A    between atoms: _119  and  _120
REMARK   54  A    between atoms: _122  and  _124
REMARK   55  A    between atoms: _124  and  _125
REMARK   56  A    between atoms: _124  and  _127
REMARK   57  A    between atoms: _127  and  _128
REMARK   58  A    between atoms: _131  and  _133
REMARK   59  A    between atoms: _133  and  _134
REMARK   60  A    between atoms: _136  and  _138
REMARK   61  A    between atoms: _138  and  _139
REMARK   62  A    between atoms: _141  and  _143
REMARK   63  A    between atoms: _143  and  _144
REMARK   64  A    between atoms: _143  and  _146
REMARK   65  A    between atoms: _146  and  _147
REMARK   66  A    between atoms: _150  and  _152
REMARK   67  A    between atoms: _152  and  _153
REMARK   68  A    between atoms: _155  and  _157
REMARK   69  A    between atoms: _157  and  _158
REMARK   70  A    between atoms: _160  and  _162
REMARK   71  A    between atoms: _162  and  _163
REMARK   72  A    between atoms: _162  and  _165
REMARK   73  A    between atoms: _165  and  _166
REMARK   74  A    between atoms: _172  and  _174
REMARK   75  A    between atoms: _174  and  _175
REMARK   76  A    between atoms: _174  and  _177
REMARK   77  A    between atoms: _177  and  _178
REMARK   78  A    between atoms: _181  and  _183
REMARK   79  A    between atoms: _183  and  _184
REMARK   80  A    between atoms: _183  and  _186
REMARK   81  A    between atoms: _189  and  _191
REMARK   82  A    between atoms: _191  and  _192
REMARK   83  A    between atoms: _191  and  _194
REMARK   84  A    between atoms: _194  and  _195
REMARK   85  A    between atoms: _198  and  _200
REMARK   86  A    between atoms: _200  and  _201
REMARK   87  A    between atoms: _200  and  _203
REMARK   88  A    between atoms: _203  and  _204
REMARK   89  A    between atoms: _208  and  _209
REMARK   90  A    between atoms: _214  and  _216
REMARK   91  A    between atoms: _216  and  _217
REMARK   92  A    between atoms: _216  and  _219
REMARK   93  A    between atoms: _222  and  _224
REMARK   94  A    between atoms: _224  and  _225
REMARK   95  A    between atoms: _224  and  _227
REMARK   96  A    between atoms: _227  and  _228
REMARK   97  A    between atoms: _233  and  _235
REMARK   98  A    between atoms: _235  and  _236
REMARK   99  A    between atoms: _235  and  _238
REMARK  100  A    between atoms: _238  and  _239
REMARK  101  A    between atoms: _242  and  _244
REMARK  102  A    between atoms: _244  and  _245
REMARK  103  A    between atoms: _244  and  _247
REMARK  104  A    between atoms: _247  and  _248
REMARK  105  A    between atoms: _251  and  _253
REMARK  106  A    between atoms: _253  and  _254
REMARK  107  A    between atoms: _256  and  _258
REMARK  108  A    between atoms: _258  and  _259
REMARK  109  A    between atoms: _258  and  _261
REMARK  110  A    between atoms: _261  and  _262
REMARK  111  A    between atoms: _262  and  _263
REMARK  112  A    between atoms: _263  and  _264
REMARK  113  A    between atoms: _273  and  _275
REMARK  114  A    between atoms: _275  and  _276
REMARK  115  A    between atoms: _275  and  _278
REMARK  116  A    between atoms: _278  and  _279
REMARK  117  A    between atoms: _279  and  _280
REMARK  118  A    between atoms: _280  and  _281
REMARK  119  A    between atoms: _290  and  _292
REMARK  120  A    between atoms: _292  and  _293
REMARK  121  A    between atoms: _292  and  _295
REMARK  122  A    between atoms: _295  and  _296
REMARK  123  A    between atoms: _299  and  _301
REMARK  124  A    between atoms: _301  and  _302
REMARK  125  A    between atoms: _301  and  _304
REMARK  126  A    between atoms: _304  and  _305
REMARK  127  A    between atoms: _308  and  _310
REMARK  128  A    between atoms: _310  and  _311
REMARK  129  A    between atoms: _310  and  _313
REMARK  130  A    between atoms: _313  and  _314
REMARK  131  A    between atoms: _317  and  _319
REMARK  132  A    between atoms: _319  and  _320
REMARK  133  A    between atoms: _319  and  _322
REMARK  134  A    between atoms: _322  and  _323
REMARK  135  A    between atoms: _326  and  _328
REMARK  136  A    between atoms: _328  and  _329
REMARK  137  A    between atoms: _328  and  _331
REMARK  138  A    between atoms: _331  and  _332
REMARK  139  A    between atoms: _335  and  _337
REMARK  140  A    between atoms: _337  and  _338
REMARK  141  A    between atoms: _340  and  _342
REMARK  142  A    between atoms: _342  and  _343
REMARK  143  A    between atoms: _346  and  _348
REMARK  144  A    between atoms: _348  and  _349
REMARK  145  A    between atoms: _348  and  _351
REMARK  146  A    between atoms: _351  and  _352
REMARK  147  A    between atoms: _355  and  _357
REMARK  148  A    between atoms: _357  and  _358
REMARK  149  A    between atoms: _357  and  _360
REMARK  150  A    between atoms: _360  and  _361
REMARK  151  A    between atoms: _364  and  _366
REMARK  152  A    between atoms: _366  and  _367
REMARK  153  A    between atoms: _366  and  _369
REMARK  154  A    between atoms: _369  and  _370
REMARK  155  A    between atoms: _373  and  _375
REMARK  156  A    between atoms: _375  and  _376
REMARK  157  A    between atoms: _375  and  _378
REMARK  158  A    between atoms: _381  and  _383
REMARK  159  A    between atoms: _383  and  _384
REMARK  160  A    between atoms: _383  and  _386
REMARK  161  A    between atoms: _386  and  _387
REMARK  162  A    between atoms: _387  and  _388
REMARK  163  A    between atoms: _388  and  _389
REMARK  164  A    between atoms: _389  and  _390
REMARK  165  A    between atoms: _394  and  _396
REMARK  166  A    between atoms: _396  and  _397
REMARK  167  A    between atoms: _396  and  _399
REMARK  168  A    between atoms: _399  and  _400
REMARK  169  A    between atoms: _400  and  _401
REMARK  170  A    between atoms: _403  and  _405
REMARK  171  A    between atoms: _405  and  _406
REMARK  172  A    between atoms: _405  and  _408
REMARK  173  A    between atoms: _408  and  _409
REMARK  174  A    between atoms: _412  and  _414
REMARK  175  A    between atoms: _414  and  _415
REMARK  176  A    between atoms: _417  and  _419
REMARK  177  A    between atoms: _419  and  _420
REMARK  178  A    between atoms: _422  and  _424
REMARK  179  A    between atoms: _424  and  _425
REMARK  180  A    between atoms: _424  and  _427
REMARK  181  A    between atoms: _427  and  _428
REMARK  182  A    between atoms: _431  and  _433
REMARK  183  A    between atoms: _433  and  _434
REMARK  184  A    between atoms: _436  and  _438
REMARK  185  A    between atoms: _438  and  _439
REMARK  186  A    between atoms: _441  and  _443
REMARK  187  A    between atoms: _443  and  _444
REMARK  188  A    between atoms: _443  and  _446
REMARK  189  A    between atoms: _446  and  _447
REMARK  190  A    between atoms: _453  and  _455
REMARK  191  A    between atoms: _455  and  _456
REMARK  192  A    between atoms: _455  and  _458
REMARK  193  A    between atoms: _458  and  _459
REMARK  194  A    between atoms: _462  and  _464
REMARK  195  A    between atoms: _464  and  _465
REMARK  196  A    between atoms: _464  and  _467
REMARK  197  A    between atoms: _470  and  _472
REMARK  198  A    between atoms: _472  and  _473
REMARK  199  A    between atoms: _472  and  _475
REMARK  200  A    between atoms: _475  and  _476
REMARK  201  A    between atoms: _480  and  _481
REMARK  202  A    between atoms: _486  and  _488
REMARK  203  A    between atoms: _488  and  _489
REMARK  204  A    between atoms: _488  and  _491
REMARK  205  A    between atoms: _491  and  _492
REMARK  206  A    between atoms: _496  and  _497
REMARK  207  A    between atoms: _502  and  _504
REMARK  208  A    between atoms: _504  and  _505
REMARK  209  A    between atoms: _504  and  _507
REMARK  210  A    between atoms: _510  and  _512
REMARK  211  A    between atoms: _512  and  _513
REMARK  212  A    between atoms: _512  and  _515
REMARK  213  A    between atoms: _515  and  _516
REMARK  214  A    between atoms: _521  and  _523
REMARK  215  A    between atoms: _523  and  _524
REMARK  216  A    between atoms: _523  and  _526
REMARK  217  A    between atoms: _526  and  _527
REMARK  218  A    between atoms: _530  and  _532
REMARK  219  A    between atoms: _532  and  _533
REMARK  220  A    between atoms: _532  and  _535
REMARK  221  A    between atoms: _535  and  _536
REMARK  222  A    between atoms: _539  and  _541
REMARK  223  A    between atoms: _541  and  _542
REMARK  224  A    between atoms: _544  and  _546
REMARK  225  A    between atoms: _546  and  _547
REMARK  226  A    between atoms: _546  and  _549
REMARK  227  A    between atoms: _549  and  _550
REMARK  228  A    between atoms: _550  and  _551
REMARK  229  A    between atoms: _551  and  _552
REMARK                            x       y       z     vdW  Elec       q    Type
REMARK                         _______ _______ _______ _____ _____    ______ ____
ROOT
ATOM      1  C   GLY A   5      12.677  18.731   9.187  0.00  0.00    +0.243 C 
ATOM      2  O   GLY A   5      12.945  18.112  10.218  0.00  0.00    -0.273 OA
ATOM      3  N   ILE A   6      11.922  19.822   9.174  0.00  0.00    -0.297 N 
ATOM      4  H   ILE A   6      11.721  20.290   8.267  0.00  0.00    +0.150 HD
ENDROOT
BRANCH   3   5
ATOM      5  CA  ILE A   6      11.370  20.377  10.396  0.00  0.00    +0.149 C 
BRANCH   5   6
ATOM      6  C   ILE A   6      10.351  19.440  11.060  0.00  0.00    +0.241 C 
ATOM      7  O   ILE A   6      10.324  19.321  12.283  0.00  0.00    -0.273 OA
ATOM      8  N   GLY A   7       9.529  18.768  10.258  0.00  0.00    -0.295 N 
ATOM      9  H   GLY A   7       9.616  18.868   9.226  0.00  0.00    +0.150 HD
BRANCH   8  10
ATOM     10  CA  GLY A   7       8.510  17.894  10.817  0.00  0.00    +0.176 C 
BRANCH  10  11
ATOM     11  C   GLY A   7       8.832  16.417  10.944  0.00  0.00    +0.243 C 
ATOM     12  O   GLY A   7       7.955  15.622  11.277  0.00  0.00    -0.273 OA
ATOM     13  N   GLY A   8      10.076  16.035  10.688  0.00  0.00    -0.295 N 
ATOM     14  H   GLY A   8      10.793  16.737  10.415  0.00  0.00    +0.150 HD
BRANCH  13  15
ATOM     15  CA  GLY A   8      10.430  14.632  10.791  0.00  0.00    +0.176 C 
BRANCH  15  16
ATOM     16  C   GLY A   8      11.200  14.162   9.577  0.00  0.00    +0.243 C 
ATOM     17  N   PHE A   9      11.238  12.852   9.363  0.00  0.00    -0.297 N 
ATOM     18  H   PHE A   9      10.745  12.208  10.014  0.00  0.00    +0.150 HD
ATOM     19  O   GLY A   8      11.759  14.970   8.841  0.00  0.00    -0.273 OA
BRANCH  17  20
ATOM     20  CA  PHE A   9      11.964  12.311   8.224  0.00  0.00    +0.153 C 
BRANCH  20  21
ATOM     21  C   PHE A   9      11.033  11.741   7.180  0.00  0.00    +0.241 C 
ATOM     22  O   PHE A   9       9.926  11.303   7.493  0.00  0.00    -0.273 OA
ATOM     23  N   ILE A  10      11.485  11.771   5.933  0.00  0.00    -0.298 N 
ATOM     24  H   ILE A  10      12.414  12.200   5.746  0.00  0.00    +0.150 HD
BRANCH  23  25
ATOM     25  CA  ILE A  10      10.727  11.225   4.819  0.00  0.00    +0.137 C 
BRANCH  25  26
ATOM     26  C   ILE A  10      11.691  10.405   3.966  0.00  0.00    +0.227 C 
ATOM     27  O   ILE A  10      12.896  10.677   3.930  0.00  0.00    -0.286 OA
ENDBRANCH  25  26
BRANCH  25  28
ATOM     28  CB  ILE A  10      10.101  12.325   3.931  0.00  0.00    +0.026 C 
ATOM     29  CG2 ILE A  10       9.158  13.189   4.758  0.00  0.00    +0.002 C 
BRANCH  28  30
ATOM     30  CG1 ILE A  10      11.200  13.189   3.307  0.00  0.00    +0.002 C 
ATOM     31  CD1 ILE A  10      10.684  14.160   2.256  0.00  0.00    +0.000 C 
ENDBRANCH  28  30
ENDBRANCH  25  28
ENDBRANCH  23  25
ENDBRANCH  20  21
BRANCH  20  32
ATOM     32  CB  PHE A   9      12.935  11.220   8.674  0.00  0.00    +0.055 C 
BRANCH  32  33
ATOM     33  CG  PHE A   9      13.986  11.704   9.621  0.00  0.00    -0.020 A 
ATOM     34  CD2 PHE A   9      13.655  12.066  10.922  0.00  0.00    -0.004 A 
ATOM     35  CE2 PHE A   9      14.627  12.543  11.801  0.00  0.00    -0.000 A 
ATOM     36  CZ  PHE A   9      15.949  12.661  11.374  0.00  0.00    -0.000 A 
ATOM     37  CE1 PHE A   9      16.288  12.300  10.077  0.00  0.00    -0.000 A 
ATOM     38  CD1 PHE A   9      15.307  11.824   9.208  0.00  0.00    -0.004 A 
ENDBRANCH  32  33
ENDBRANCH  20  32
ENDBRANCH  17  20
ENDBRANCH  15  16
ENDBRANCH  13  15
ENDBRANCH  10  11
ENDBRANCH   8  10
ENDBRANCH   5   6
BRANCH   5  39
ATOM     39  CB  ILE A   6      10.694  21.750  10.120  0.00  0.00    +0.027 C 
ATOM     40  CG2 ILE A   6       9.298  21.562   9.560  0.00  0.00    +0.002 C 
BRANCH  39  41
ATOM     41  CG1 ILE A   6      10.613  22.554  11.411  0.00  0.00    +0.002 C 
ATOM     42  CD1 ILE A   6      11.963  22.889  11.966  0.00  0.00    +0.000 C 
ENDBRANCH  39  41
ENDBRANCH   5  39
ENDBRANCH   3   5
BRANCH   1  43
ATOM     43  CA  GLY A   5      13.190  18.251   7.849  0.00  0.00    +0.176 C 
BRANCH  43  45
ATOM     44  C   GLY A   4      14.791  16.456   7.661  0.00  0.00    +0.243 C 
ATOM     45  N   GLY A   5      13.576  16.864   8.001  0.00  0.00    -0.295 N 
ATOM     46  H   GLY A   5      12.892  16.179   8.382  0.00  0.00    +0.150 HD
ATOM     47  O   GLY A   4      15.636  17.199   7.164  0.00  0.00    -0.273 OA
BRANCH  44  48
ATOM     48  CA  GLY A   4      15.082  14.991   7.902  0.00  0.00    +0.176 C 
BRANCH  48  50
ATOM     49  C   ILE A   3      15.279  13.547   5.984  0.00  0.00    +0.241 C 
ATOM     50  N   GLY A   4      15.852  14.388   6.837  0.00  0.00    -0.295 N 
ATOM     51  H   GLY A   4      16.862  14.615   6.738  0.00  0.00    +0.150 HD
ATOM     52  O   ILE A   3      14.087  13.235   6.038  0.00  0.00    -0.273 OA
BRANCH  49  53
ATOM     53  CA  ILE A   3      16.190  12.964   4.922  0.00  0.00    +0.149 C 
BRANCH  53  56
ATOM     54  C   MET A   2      16.674  10.601   4.759  0.00  0.00    +0.241 C 
ATOM     55  O   MET A   2      17.845  10.787   5.092  0.00  0.00    -0.273 OA
ATOM     56  N   ILE A   3      15.799  11.592   4.624  0.00  0.00    -0.297 N 
ATOM     57  H   ILE A   3      14.831  11.388   4.304  0.00  0.00    +0.150 HD
BRANCH  54  58
ATOM     58  CA  MET A   2      16.187   9.190   4.451  0.00  0.00    +0.149 C 
BRANCH  58  60
ATOM     59  C   LYS A   1      16.750   8.435   2.209  0.00  0.00    +0.238 C 
ATOM     60  N   MET A   2      17.111   8.679   3.458  0.00  0.00    -0.297 N 
ATOM     61  H   MET A   2      18.096   8.497   3.738  0.00  0.00    +0.150 HD
ATOM     62  O   LYS A   1      15.610   8.602   1.782  0.00  0.00    -0.274 OA
BRANCH  59  63
ATOM     63  CA  LYS A   1      17.846   7.911   1.317  0.00  0.00    +0.145 C 
BRANCH  63  64
ATOM     64  N   LYS A   1      17.272   6.959   0.389  0.00  0.00    -0.238 NA
ATOM     65  H   LYS A   1      16.273   7.049   0.115  0.00  0.00    +0.142 HD
ENDBRANCH  63  64
BRANCH  63  66
ATOM     66  CB  LYS A   1      18.526   9.086   0.614  0.00  0.00    +0.026 C 
BRANCH  66  67
ATOM     67  CG  LYS A   1      19.274   9.960   1.618  0.00  0.00    -0.000 C 
BRANCH  67  68
ATOM     68  CD  LYS A   1      20.049  11.095   0.982  0.00  0.00    -0.024 C 
BRANCH  68  69
ATOM     69  CE  LYS A   1      20.900  11.791   2.031  0.00  0.00    -0.086 C 
BRANCH  69  70
ATOM     70  NZ  LYS A   1      21.592  12.998   1.488  0.00  0.00    +0.380 N 
ATOM     71  HZ1 LYS A   1      22.160  13.438   2.240  0.00  0.00    -0.089 HD
ATOM     72  HZ2 LYS A   1      20.883  13.677   1.144  0.00  0.00    -0.089 HD
ATOM     73  HZ3 LYS A   1      22.213  12.716   0.703  0.00  0.00    -0.089 HD
ENDBRANCH  69  70
ENDBRANCH  68  69
ENDBRANCH  67  68
ENDBRANCH  66  67
ENDBRANCH  63  66
ENDBRANCH  59  63
ENDBRANCH  58  60
BRANCH  58  74
ATOM     74  CB  MET A   2      16.271   8.329   5.715  0.00  0.00    +0.041 C 
BRANCH  74  75
ATOM     75  CG  MET A   2      15.136   8.532   6.703  0.00  0.00    +0.060 C 
BRANCH  75  76
ATOM     76  SD  MET A   2      13.722   7.496   6.303  0.00  0.00    -0.139 S 
ATOM     77  CE  MET A   2      13.918   6.198   7.514  0.00  0.00    +0.069 C 
ENDBRANCH  75  76
ENDBRANCH  74  75
ENDBRANCH  58  74
ENDBRANCH  54  58
ENDBRANCH  53  56
BRANCH  53  78
ATOM     78  CB  ILE A   3      16.156  13.867   3.664  0.00  0.00    +0.027 C 
ATOM     79  CG2 ILE A   3      17.141  13.338   2.628  0.00  0.00    +0.002 C 
BRANCH  78  80
ATOM     80  CG1 ILE A   3      14.734  13.937   3.097  0.00  0.00    +0.002 C 
ATOM     81  CD1 ILE A   3      14.599  14.886   1.909  0.00  0.00    +0.000 C 
ENDBRANCH  78  80
ENDBRANCH  53  78
ENDBRANCH  49  53
ENDBRANCH  48  50
ENDBRANCH  44  48
ENDBRANCH  43  45
ENDBRANCH   1  43
TORSDOF 36
REMARK  Name = ../refined-set-2016/1ec2/1ec2_pocket.pdb
REMARK  229 active torsions:
REMARK  status: ('A' for Active; 'I' for Inactive)
REMARK    1  A    between atoms: _1  and  _3
REMARK    2  A    between atoms: _3  and  _4
REMARK    3  A    between atoms: _3  and  _6
REMARK    4  A    between atoms: _6  and  _7
REMARK    5  A    between atoms: _7  and  _8
REMARK    6  A    between atoms: _8  and  _9
REMARK    7  A    between atoms: _18  and  _20
REMARK    8  A    between atoms: _20  and  _21
REMARK    9  A    between atoms: _20  and  _23
REMARK   10  A    between atoms: _23  and  _24
REMARK   11  A    between atoms: _27  and  _29
REMARK   12  A    between atoms: _29  and  _30
REMARK   13  A    between atoms: _29  and  _32
REMARK   14  A    between atoms: _32  and  _33
REMARK   15  A    between atoms: _36  and  _38
REMARK   16  A    between atoms: _38  and  _39
REMARK   17  A    between atoms: _38  and  _41
REMARK   18  A    between atoms: _41  and  _42
REMARK   19  A    between atoms: _45  and  _47
REMARK   20  A    between atoms: _47  and  _48
REMARK   21  A    between atoms: _47  and  _50
REMARK   22  A    between atoms: _50  and  _51
REMARK   23  A    between atoms: _54  and  _56
REMARK   24  A    between atoms: _56  and  _57
REMARK   25  A    between atoms: _59  and  _61
REMARK   26  A    between atoms: _61  and  _62
REMARK   27  A    between atoms: _65  and  _67
REMARK   28  A    between atoms: _67  and  _68
REMARK   29  A    between atoms: _67  and  _70
REMARK   30  A    between atoms: _70  and  _71
REMARK   31  A    between atoms: _74  and  _76
REMARK   32  A    between atoms: _76  and  _77
REMARK   33  A    between atoms: _76  and  _79
REMARK   34  A    between atoms: _79  and  _80
REMARK   35  A    between atoms: _83  and  _85
REMARK   36  A    between atoms: _85  and  _86
REMARK   37  A    between atoms: _85  and  _88
REMARK   38  A    between atoms: _88  and  _89
REMARK   39  A    between atoms: _92  and  _94
REMARK   40  A    between atoms: _94  and  _95
REMARK   41  A    between atoms: _94  and  _97
REMARK   42  A    between atoms: _100  and  _102
REMARK   43  A    between atoms: _102  and  _103
REMARK   44  A    between atoms: _102  and  _105
REMARK   45  A    between atoms: _105  and  _106
REMARK   46  A    between atoms: _106  and  _107
REMARK   47  A    between atoms: _107  and  _108
REMARK   48  A    between atoms: _108  and  _109
REMARK   49  A    between atoms: _113  and  _115
REMARK   50  A    between atoms: _115  and  _116
REMARK   51  A    between atoms: _115  and  _118
REMARK   52  A    between atoms: _118  and  _119
REMARK   53  A    between atoms: _119  and  _120
REMARK   54  A    between atoms: _122  and  _124
REMARK   55  A    between atoms: _124  and  _125
REMARK   56  A    between atoms: _124  and  _127
REMARK   57  A    between atoms: _127  and  _128
REMARK   58  A    between atoms: _131  and  _133
REMARK   59  A    between atoms: _133  and  _134
REMARK   60  A    between atoms: _136  and  _138
REMARK   61  A    between atoms: _138  and  _139
REMARK   62  A    between atoms: _141  and  _143
REMARK   63  A    between atoms: _143  and  _144
REMARK   64  A    between atoms: _143  and  _146
REMARK   65  A    between atoms: _146  and  _147
REMARK   66  A    between atoms: _150  and  _152
REMARK   67  A    between atoms: _152  and  _153
REMARK   68  A    between atoms: _155  and  _157
REMARK   69  A    between atoms: _157  and  _158
REMARK   70  A    between atoms: _160  and  _162
REMARK   71  A    between atoms: _162  and  _163
REMARK   72  A    between atoms: _162  and  _165
REMARK   73  A    between atoms: _165  and  _166
REMARK   74  A    between atoms: _172  and  _174
REMARK   75  A    between atoms: _174  and  _175
REMARK   76  A    between atoms: _174  and  _177
REMARK   77  A    between atoms: _177  and  _178
REMARK   78  A    between atoms: _181  and  _183
REMARK   79  A    between atoms: _183  and  _184
REMARK   80  A    between atoms: _183  and  _186
REMARK   81  A    between atoms: _189  and  _191
REMARK   82  A    between atoms: _191  and  _192
REMARK   83  A    between atoms: _191  and  _194
REMARK   84  A    between atoms: _194  and  _195
REMARK   85  A    between atoms: _198  and  _200
REMARK   86  A    between atoms: _200  and  _201
REMARK   87  A    between atoms: _200  and  _203
REMARK   88  A    between atoms: _203  and  _204
REMARK   89  A    between atoms: _208  and  _209
REMARK   90  A    between atoms: _214  and  _216
REMARK   91  A    between atoms: _216  and  _217
REMARK   92  A    between atoms: _216  and  _219
REMARK   93  A    between atoms: _222  and  _224
REMARK   94  A    between atoms: _224  and  _225
REMARK   95  A    between atoms: _224  and  _227
REMARK   96  A    between atoms: _227  and  _228
REMARK   97  A    between atoms: _233  and  _235
REMARK   98  A    between atoms: _235  and  _236
REMARK   99  A    between atoms: _235  and  _238
REMARK  100  A    between atoms: _238  and  _239
REMARK  101  A    between atoms: _242  and  _244
REMARK  102  A    between atoms: _244  and  _245
REMARK  103  A    between atoms: _244  and  _247
REMARK  104  A    between atoms: _247  and  _248
REMARK  105  A    between atoms: _251  and  _253
REMARK  106  A    between atoms: _253  and  _254
REMARK  107  A    between atoms: _256  and  _258
REMARK  108  A    between atoms: _258  and  _259
REMARK  109  A    between atoms: _258  and  _261
REMARK  110  A    between atoms: _261  and  _262
REMARK  111  A    between atoms: _262  and  _263
REMARK  112  A    between atoms: _263  and  _264
REMARK  113  A    between atoms: _273  and  _275
REMARK  114  A    between atoms: _275  and  _276
REMARK  115  A    between atoms: _275  and  _278
REMARK  116  A    between atoms: _278  and  _279
REMARK  117  A    between atoms: _279  and  _280
REMARK  118  A    between atoms: _280  and  _281
REMARK  119  A    between atoms: _290  and  _292
REMARK  120  A    between atoms: _292  and  _293
REMARK  121  A    between atoms: _292  and  _295
REMARK  122  A    between atoms: _295  and  _296
REMARK  123  A    between atoms: _299  and  _301
REMARK  124  A    between atoms: _301  and  _302
REMARK  125  A    between atoms: _301  and  _304
REMARK  126  A    between atoms: _304  and  _305
REMARK  127  A    between atoms: _308  and  _310
REMARK  128  A    between atoms: _310  and  _311
REMARK  129  A    between atoms: _310  and  _313
REMARK  130  A    between atoms: _313  and  _314
REMARK  131  A    between atoms: _317  and  _319
REMARK  132  A    between atoms: _319  and  _320
REMARK  133  A    between atoms: _319  and  _322
REMARK  134  A    between atoms: _322  and  _323
REMARK  135  A    between atoms: _326  and  _328
REMARK  136  A    between atoms: _328  and  _329
REMARK  137  A    between atoms: _328  and  _331
REMARK  138  A    between atoms: _331  and  _332
REMARK  139  A    between atoms: _335  and  _337
REMARK  140  A    between atoms: _337  and  _338
REMARK  141  A    between atoms: _340  and  _342
REMARK  142  A    between atoms: _342  and  _343
REMARK  143  A    between atoms: _346  and  _348
REMARK  144  A    between atoms: _348  and  _349
REMARK  145  A    between atoms: _348  and  _351
REMARK  146  A    between atoms: _351  and  _352
REMARK  147  A    between atoms: _355  and  _357
REMARK  148  A    between atoms: _357  and  _358
REMARK  149  A    between atoms: _357  and  _360
REMARK  150  A    between atoms: _360  and  _361
REMARK  151  A    between atoms: _364  and  _366
REMARK  152  A    between atoms: _366  and  _367
REMARK  153  A    between atoms: _366  and  _369
REMARK  154  A    between atoms: _369  and  _370
REMARK  155  A    between atoms: _373  and  _375
REMARK  156  A    between atoms: _375  and  _376
REMARK  157  A    between atoms: _375  and  _378
REMARK  158  A    between atoms: _381  and  _383
REMARK  159  A    between atoms: _383  and  _384
REMARK  160  A    between atoms: _383  and  _386
REMARK  161  A    between atoms: _386  and  _387
REMARK  162  A    between atoms: _387  and  _388
REMARK  163  A    between atoms: _388  and  _389
REMARK  164  A    between atoms: _389  and  _390
REMARK  165  A    between atoms: _394  and  _396
REMARK  166  A    between atoms: _396  and  _397
REMARK  167  A    between atoms: _396  and  _399
REMARK  168  A    between atoms: _399  and  _400
REMARK  169  A    between atoms: _400  and  _401
REMARK  170  A    between atoms: _403  and  _405
REMARK  171  A    between atoms: _405  and  _406
REMARK  172  A    between atoms: _405  and  _408
REMARK  173  A    between atoms: _408  and  _409
REMARK  174  A    between atoms: _412  and  _414
REMARK  175  A    between atoms: _414  and  _415
REMARK  176  A    between atoms: _417  and  _419
REMARK  177  A    between atoms: _419  and  _420
REMARK  178  A    between atoms: _422  and  _424
REMARK  179  A    between atoms: _424  and  _425
REMARK  180  A    between atoms: _424  and  _427
REMARK  181  A    between atoms: _427  and  _428
REMARK  182  A    between atoms: _431  and  _433
REMARK  183  A    between atoms: _433  and  _434
REMARK  184  A    between atoms: _436  and  _438
REMARK  185  A    between atoms: _438  and  _439
REMARK  186  A    between atoms: _441  and  _443
REMARK  187  A    between atoms: _443  and  _444
REMARK  188  A    between atoms: _443  and  _446
REMARK  189  A    between atoms: _446  and  _447
REMARK  190  A    between atoms: _453  and  _455
REMARK  191  A    between atoms: _455  and  _456
REMARK  192  A    between atoms: _455  and  _458
REMARK  193  A    between atoms: _458  and  _459
REMARK  194  A    between atoms: _462  and  _464
REMARK  195  A    between atoms: _464  and  _465
REMARK  196  A    between atoms: _464  and  _467
REMARK  197  A    between atoms: _470  and  _472
REMARK  198  A    between atoms: _472  and  _473
REMARK  199  A    between atoms: _472  and  _475
REMARK  200  A    between atoms: _475  and  _476
REMARK  201  A    between atoms: _480  and  _481
REMARK  202  A    between atoms: _486  and  _488
REMARK  203  A    between atoms: _488  and  _489
REMARK  204  A    between atoms: _488  and  _491
REMARK  205  A    between atoms: _491  and  _492
REMARK  206  A    between atoms: _496  and  _497
REMARK  207  A    between atoms: _502  and  _504
REMARK  208  A    between atoms: _504  and  _505
REMARK  209  A    between atoms: _504  and  _507
REMARK  210  A    between atoms: _510  and  _512
REMARK  211  A    between atoms: _512  and  _513
REMARK  212  A    between atoms: _512  and  _515
REMARK  213  A    between atoms: _515  and  _516
REMARK  214  A    between atoms: _521  and  _523
REMARK  215  A    between atoms: _523  and  _524
REMARK  216  A    between atoms: _523  and  _526
REMARK  217  A    between atoms: _526  and  _527
REMARK  218  A    between atoms: _530  and  _532
REMARK  219  A    between atoms: _532  and  _533
REMARK  220  A    between atoms: _532  and  _535
REMARK  221  A    between atoms: _535  and  _536
REMARK  222  A    between atoms: _539  and  _541
REMARK  223  A    between atoms: _541  and  _542
REMARK  224  A    between atoms: _544  and  _546
REMARK  225  A    between atoms: _546  and  _547
REMARK  226  A    between atoms: _546  and  _549
REMARK  227  A    between atoms: _549  and  _550
REMARK  228  A    between atoms: _550  and  _551
REMARK  229  A    between atoms: _551  and  _552
REMARK                            x       y       z     vdW  Elec       q    Type
REMARK                         _______ _______ _______ _____ _____    ______ ____
ROOT
ATOM      1  CA  VAL A   1      13.151   9.680  -0.974  0.00  0.00    +0.133 C 
ENDROOT
BRANCH   1   2
ATOM      2  CB  VAL A   1      13.765  11.100  -0.990  0.00  0.00    +0.023 C 
ATOM      3  CG2 VAL A   1      12.887  12.063  -0.197  0.00  0.00    +0.002 C 
ATOM      4  CG1 VAL A   1      15.172  11.064  -0.406  0.00  0.00    +0.002 C 
ENDBRANCH   1   2
BRANCH   1   5
ATOM      5  N   VAL A   1      13.083   9.144   0.378  0.00  0.00    -0.239 NA
ATOM      6  H   VAL A   1      13.946   8.789   0.837  0.00  0.00    +0.142 HD
ENDBRANCH   1   5
BRANCH   1   7
ATOM      7  C   VAL A   1      13.981   8.801  -1.892  0.00  0.00    +0.224 C 
ATOM      8  O   VAL A   1      14.733   7.938  -1.436  0.00  0.00    -0.287 OA
ENDBRANCH   1   7
TORSDOF 3
REMARK  Name = ../refined-set-2016/1ec2/1ec2_pocket.pdb
REMARK  229 active torsions:
REMARK  status: ('A' for Active; 'I' for Inactive)
REMARK    1  A    between atoms: _1  and  _3
REMARK    2  A    between atoms: _3  and  _4
REMARK    3  A    between atoms: _3  and  _6
REMARK    4  A    between atoms: _6  and  _7
REMARK    5  A    between atoms: _7  and  _8
REMARK    6  A    between atoms: _8  and  _9
REMARK    7  A    between atoms: _18  and  _20
REMARK    8  A    between atoms: _20  and  _21
REMARK    9  A    between atoms: _20  and  _23
REMARK   10  A    between atoms: _23  and  _24
REMARK   11  A    between atoms: _27  and  _29
REMARK   12  A    between atoms: _29  and  _30
REMARK   13  A    between atoms: _29  and  _32
REMARK   14  A    between atoms: _32  and  _33
REMARK   15  A    between atoms: _36  and  _38
REMARK   16  A    between atoms: _38  and  _39
REMARK   17  A    between atoms: _38  and  _41
REMARK   18  A    between atoms: _41  and  _42
REMARK   19  A    between atoms: _45  and  _47
REMARK   20  A    between atoms: _47  and  _48
REMARK   21  A    between atoms: _47  and  _50
REMARK   22  A    between atoms: _50  and  _51
REMARK   23  A    between atoms: _54  and  _56
REMARK   24  A    between atoms: _56  and  _57
REMARK   25  A    between atoms: _59  and  _61
REMARK   26  A    between atoms: _61  and  _62
REMARK   27  A    between atoms: _65  and  _67
REMARK   28  A    between atoms: _67  and  _68
REMARK   29  A    between atoms: _67  and  _70
REMARK   30  A    between atoms: _70  and  _71
REMARK   31  A    between atoms: _74  and  _76
REMARK   32  A    between atoms: _76  and  _77
REMARK   33  A    between atoms: _76  and  _79
REMARK   34  A    between atoms: _79  and  _80
REMARK   35  A    between atoms: _83  and  _85
REMARK   36  A    between atoms: _85  and  _86
REMARK   37  A    between atoms: _85  and  _88
REMARK   38  A    between atoms: _88  and  _89
REMARK   39  A    between atoms: _92  and  _94
REMARK   40  A    between atoms: _94  and  _95
REMARK   41  A    between atoms: _94  and  _97
REMARK   42  A    between atoms: _100  and  _102
REMARK   43  A    between atoms: _102  and  _103
REMARK   44  A    between atoms: _102  and  _105
REMARK   45  A    between atoms: _105  and  _106
REMARK   46  A    between atoms: _106  and  _107
REMARK   47  A    between atoms: _107  and  _108
REMARK   48  A    between atoms: _108  and  _109
REMARK   49  A    between atoms: _113  and  _115
REMARK   50  A    between atoms: _115  and  _116
REMARK   51  A    between atoms: _115  and  _118
REMARK   52  A    between atoms: _118  and  _119
REMARK   53  A    between atoms: _119  and  _120
REMARK   54  A    between atoms: _122  and  _124
REMARK   55  A    between atoms: _124  and  _125
REMARK   56  A    between atoms: _124  and  _127
REMARK   57  A    between atoms: _127  and  _128
REMARK   58  A    between atoms: _131  and  _133
REMARK   59  A    between atoms: _133  and  _134
REMARK   60  A    between atoms: _136  and  _138
REMARK   61  A    between atoms: _138  and  _139
REMARK   62  A    between atoms: _141  and  _143
REMARK   63  A    between atoms: _143  and  _144
REMARK   64  A    between atoms: _143  and  _146
REMARK   65  A    between atoms: _146  and  _147
REMARK   66  A    between atoms: _150  and  _152
REMARK   67  A    between atoms: _152  and  _153
REMARK   68  A    between atoms: _155  and  _157
REMARK   69  A    between atoms: _157  and  _158
REMARK   70  A    between atoms: _160  and  _162
REMARK   71  A    between atoms: _162  and  _163
REMARK   72  A    between atoms: _162  and  _165
REMARK   73  A    between atoms: _165  and  _166
REMARK   74  A    between atoms: _172  and  _174
REMARK   75  A    between atoms: _174  and  _175
REMARK   76  A    between atoms: _174  and  _177
REMARK   77  A    between atoms: _177  and  _178
REMARK   78  A    between atoms: _181  and  _183
REMARK   79  A    between atoms: _183  and  _184
REMARK   80  A    between atoms: _183  and  _186
REMARK   81  A    between atoms: _189  and  _191
REMARK   82  A    between atoms: _191  and  _192
REMARK   83  A    between atoms: _191  and  _194
REMARK   84  A    between atoms: _194  and  _195
REMARK   85  A    between atoms: _198  and  _200
REMARK   86  A    between atoms: _200  and  _201
REMARK   87  A    between atoms: _200  and  _203
REMARK   88  A    between atoms: _203  and  _204
REMARK   89  A    between atoms: _208  and  _209
REMARK   90  A    between atoms: _214  and  _216
REMARK   91  A    between atoms: _216  and  _217
REMARK   92  A    between atoms: _216  and  _219
REMARK   93  A    between atoms: _222  and  _224
REMARK   94  A    between atoms: _224  and  _225
REMARK   95  A    between atoms: _224  and  _227
REMARK   96  A    between atoms: _227  and  _228
REMARK   97  A    between atoms: _233  and  _235
REMARK   98  A    between atoms: _235  and  _236
REMARK   99  A    between atoms: _235  and  _238
REMARK  100  A    between atoms: _238  and  _239
REMARK  101  A    between atoms: _242  and  _244
REMARK  102  A    between atoms: _244  and  _245
REMARK  103  A    between atoms: _244  and  _247
REMARK  104  A    between atoms: _247  and  _248
REMARK  105  A    between atoms: _251  and  _253
REMARK  106  A    between atoms: _253  and  _254
REMARK  107  A    between atoms: _256  and  _258
REMARK  108  A    between atoms: _258  and  _259
REMARK  109  A    between atoms: _258  and  _261
REMARK  110  A    between atoms: _261  and  _262
REMARK  111  A    between atoms: _262  and  _263
REMARK  112  A    between atoms: _263  and  _264
REMARK  113  A    between atoms: _273  and  _275
REMARK  114  A    between atoms: _275  and  _276
REMARK  115  A    between atoms: _275  and  _278
REMARK  116  A    between atoms: _278  and  _279
REMARK  117  A    between atoms: _279  and  _280
REMARK  118  A    between atoms: _280  and  _281
REMARK  119  A    between atoms: _290  and  _292
REMARK  120  A    between atoms: _292  and  _293
REMARK  121  A    between atoms: _292  and  _295
REMARK  122  A    between atoms: _295  and  _296
REMARK  123  A    between atoms: _299  and  _301
REMARK  124  A    between atoms: _301  and  _302
REMARK  125  A    between atoms: _301  and  _304
REMARK  126  A    between atoms: _304  and  _305
REMARK  127  A    between atoms: _308  and  _310
REMARK  128  A    between atoms: _310  and  _311
REMARK  129  A    between atoms: _310  and  _313
REMARK  130  A    between atoms: _313  and  _314
REMARK  131  A    between atoms: _317  and  _319
REMARK  132  A    between atoms: _319  and  _320
REMARK  133  A    between atoms: _319  and  _322
REMARK  134  A    between atoms: _322  and  _323
REMARK  135  A    between atoms: _326  and  _328
REMARK  136  A    between atoms: _328  and  _329
REMARK  137  A    between atoms: _328  and  _331
REMARK  138  A    between atoms: _331  and  _332
REMARK  139  A    between atoms: _335  and  _337
REMARK  140  A    between atoms: _337  and  _338
REMARK  141  A    between atoms: _340  and  _342
REMARK  142  A    between atoms: _342  and  _343
REMARK  143  A    between atoms: _346  and  _348
REMARK  144  A    between atoms: _348  and  _349
REMARK  145  A    between atoms: _348  and  _351
REMARK  146  A    between atoms: _351  and  _352
REMARK  147  A    between atoms: _355  and  _357
REMARK  148  A    between atoms: _357  and  _358
REMARK  149  A    between atoms: _357  and  _360
REMARK  150  A    between atoms: _360  and  _361
REMARK  151  A    between atoms: _364  and  _366
REMARK  152  A    between atoms: _366  and  _367
REMARK  153  A    between atoms: _366  and  _369
REMARK  154  A    between atoms: _369  and  _370
REMARK  155  A    between atoms: _373  and  _375
REMARK  156  A    between atoms: _375  and  _376
REMARK  157  A    between atoms: _375  and  _378
REMARK  158  A    between atoms: _381  and  _383
REMARK  159  A    between atoms: _383  and  _384
REMARK  160  A    between atoms: _383  and  _386
REMARK  161  A    between atoms: _386  and  _387
REMARK  162  A    between atoms: _387  and  _388
REMARK  163  A    between atoms: _388  and  _389
REMARK  164  A    between atoms: _389  and  _390
REMARK  165  A    between atoms: _394  and  _396
REMARK  166  A    between atoms: _396  and  _397
REMARK  167  A    between atoms: _396  and  _399
REMARK  168  A    between atoms: _399  and  _400
REMARK  169  A    between atoms: _400  and  _401
REMARK  170  A    between atoms: _403  and  _405
REMARK  171  A    between atoms: _405  and  _406
REMARK  172  A    between atoms: _405  and  _408
REMARK  173  A    between atoms: _408  and  _409
REMARK  174  A    between atoms: _412  and  _414
REMARK  175  A    between atoms: _414  and  _415
REMARK  176  A    between atoms: _417  and  _419
REMARK  177  A    between atoms: _419  and  _420
REMARK  178  A    between atoms: _422  and  _424
REMARK  179  A    between atoms: _424  and  _425
REMARK  180  A    between atoms: _424  and  _427
REMARK  181  A    between atoms: _427  and  _428
REMARK  182  A    between atoms: _431  and  _433
REMARK  183  A    between atoms: _433  and  _434
REMARK  184  A    between atoms: _436  and  _438
REMARK  185  A    between atoms: _438  and  _439
REMARK  186  A    between atoms: _441  and  _443
REMARK  187  A    between atoms: _443  and  _444
REMARK  188  A    between atoms: _443  and  _446
REMARK  189  A    between atoms: _446  and  _447
REMARK  190  A    between atoms: _453  and  _455
REMARK  191  A    between atoms: _455  and  _456
REMARK  192  A    between atoms: _455  and  _458
REMARK  193  A    between atoms: _458  and  _459
REMARK  194  A    between atoms: _462  and  _464
REMARK  195  A    between atoms: _464  and  _465
REMARK  196  A    between atoms: _464  and  _467
REMARK  197  A    between atoms: _470  and  _472
REMARK  198  A    between atoms: _472  and  _473
REMARK  199  A    between atoms: _472  and  _475
REMARK  200  A    between atoms: _475  and  _476
REMARK  201  A    between atoms: _480  and  _481
REMARK  202  A    between atoms: _486  and  _488
REMARK  203  A    between atoms: _488  and  _489
REMARK  204  A    between atoms: _488  and  _491
REMARK  205  A    between atoms: _491  and  _492
REMARK  206  A    between atoms: _496  and  _497
REMARK  207  A    between atoms: _502  and  _504
REMARK  208  A    between atoms: _504  and  _505
REMARK  209  A    between atoms: _504  and  _507
REMARK  210  A    between atoms: _510  and  _512
REMARK  211  A    between atoms: _512  and  _513
REMARK  212  A    between atoms: _512  and  _515
REMARK  213  A    between atoms: _515  and  _516
REMARK  214  A    between atoms: _521  and  _523
REMARK  215  A    between atoms: _523  and  _524
REMARK  216  A    between atoms: _523  and  _526
REMARK  217  A    between atoms: _526  and  _527
REMARK  218  A    between atoms: _530  and  _532
REMARK  219  A    between atoms: _532  and  _533
REMARK  220  A    between atoms: _532  and  _535
REMARK  221  A    between atoms: _535  and  _536
REMARK  222  A    between atoms: _539  and  _541
REMARK  223  A    between atoms: _541  and  _542
REMARK  224  A    between atoms: _544  and  _546
REMARK  225  A    between atoms: _546  and  _547
REMARK  226  A    between atoms: _546  and  _549
REMARK  227  A    between atoms: _549  and  _550
REMARK  228  A    between atoms: _550  and  _551
REMARK  229  A    between atoms: _551  and  _552
REMARK                            x       y       z     vdW  Elec       q    Type
REMARK                         _______ _______ _______ _____ _____    ______ ____
ROOT
ATOM      1  CA  LEU A   1      16.221  13.499  -4.513  0.00  0.00    +0.133 C 
ENDROOT
BRANCH   1   2
ATOM      2  N   LEU A   1      17.061  14.395  -5.292  0.00  0.00    -0.239 NA
ATOM      3  H   LEU A   1      17.048  15.413  -5.082  0.00  0.00    +0.142 HD
ENDBRANCH   1   2
BRANCH   1   4
ATOM      4  C   LEU A   1      14.776  13.757  -4.928  0.00  0.00    +0.224 C 
ATOM      5  O   LEU A   1      14.388  14.905  -5.159  0.00  0.00    -0.287 OA
ENDBRANCH   1   4
BRANCH   1   6
ATOM      6  CB  LEU A   1      16.379  13.784  -3.023  0.00  0.00    +0.025 C 
BRANCH   6   7
ATOM      7  CG  LEU A   1      17.812  13.808  -2.500  0.00  0.00    +0.002 C 
ATOM      8  CD2 LEU A   1      17.798  14.046  -0.991  0.00  0.00    +0.000 C 
ATOM      9  CD1 LEU A   1      18.505  12.493  -2.841  0.00  0.00    +0.000 C 
ENDBRANCH   6   7
ENDBRANCH   1   6
TORSDOF 4
REMARK  Name = ../refined-set-2016/1ec2/1ec2_pocket.pdb
REMARK  229 active torsions:
REMARK  status: ('A' for Active; 'I' for Inactive)
REMARK    1  A    between atoms: _1  and  _3
REMARK    2  A    between atoms: _3  and  _4
REMARK    3  A    between atoms: _3  and  _6
REMARK    4  A    between atoms: _6  and  _7
REMARK    5  A    between atoms: _7  and  _8
REMARK    6  A    between atoms: _8  and  _9
REMARK    7  A    between atoms: _18  and  _20
REMARK    8  A    between atoms: _20  and  _21
REMARK    9  A    between atoms: _20  and  _23
REMARK   10  A    between atoms: _23  and  _24
REMARK   11  A    between atoms: _27  and  _29
REMARK   12  A    between atoms: _29  and  _30
REMARK   13  A    between atoms: _29  and  _32
REMARK   14  A    between atoms: _32  and  _33
REMARK   15  A    between atoms: _36  and  _38
REMARK   16  A    between atoms: _38  and  _39
REMARK   17  A    between atoms: _38  and  _41
REMARK   18  A    between atoms: _41  and  _42
REMARK   19  A    between atoms: _45  and  _47
REMARK   20  A    between atoms: _47  and  _48
REMARK   21  A    between atoms: _47  and  _50
REMARK   22  A    between atoms: _50  and  _51
REMARK   23  A    between atoms: _54  and  _56
REMARK   24  A    between atoms: _56  and  _57
REMARK   25  A    between atoms: _59  and  _61
REMARK   26  A    between atoms: _61  and  _62
REMARK   27  A    between atoms: _65  and  _67
REMARK   28  A    between atoms: _67  and  _68
REMARK   29  A    between atoms: _67  and  _70
REMARK   30  A    between atoms: _70  and  _71
REMARK   31  A    between atoms: _74  and  _76
REMARK   32  A    between atoms: _76  and  _77
REMARK   33  A    between atoms: _76  and  _79
REMARK   34  A    between atoms: _79  and  _80
REMARK   35  A    between atoms: _83  and  _85
REMARK   36  A    between atoms: _85  and  _86
REMARK   37  A    between atoms: _85  and  _88
REMARK   38  A    between atoms: _88  and  _89
REMARK   39  A    between atoms: _92  and  _94
REMARK   40  A    between atoms: _94  and  _95
REMARK   41  A    between atoms: _94  and  _97
REMARK   42  A    between atoms: _100  and  _102
REMARK   43  A    between atoms: _102  and  _103
REMARK   44  A    between atoms: _102  and  _105
REMARK   45  A    between atoms: _105  and  _106
REMARK   46  A    between atoms: _106  and  _107
REMARK   47  A    between atoms: _107  and  _108
REMARK   48  A    between atoms: _108  and  _109
REMARK   49  A    between atoms: _113  and  _115
REMARK   50  A    between atoms: _115  and  _116
REMARK   51  A    between atoms: _115  and  _118
REMARK   52  A    between atoms: _118  and  _119
REMARK   53  A    between atoms: _119  and  _120
REMARK   54  A    between atoms: _122  and  _124
REMARK   55  A    between atoms: _124  and  _125
REMARK   56  A    between atoms: _124  and  _127
REMARK   57  A    between atoms: _127  and  _128
REMARK   58  A    between atoms: _131  and  _133
REMARK   59  A    between atoms: _133  and  _134
REMARK   60  A    between atoms: _136  and  _138
REMARK   61  A    between atoms: _138  and  _139
REMARK   62  A    between atoms: _141  and  _143
REMARK   63  A    between atoms: _143  and  _144
REMARK   64  A    between atoms: _143  and  _146
REMARK   65  A    between atoms: _146  and  _147
REMARK   66  A    between atoms: _150  and  _152
REMARK   67  A    between atoms: _152  and  _153
REMARK   68  A    between atoms: _155  and  _157
REMARK   69  A    between atoms: _157  and  _158
REMARK   70  A    between atoms: _160  and  _162
REMARK   71  A    between atoms: _162  and  _163
REMARK   72  A    between atoms: _162  and  _165
REMARK   73  A    between atoms: _165  and  _166
REMARK   74  A    between atoms: _172  and  _174
REMARK   75  A    between atoms: _174  and  _175
REMARK   76  A    between atoms: _174  and  _177
REMARK   77  A    between atoms: _177  and  _178
REMARK   78  A    between atoms: _181  and  _183
REMARK   79  A    between atoms: _183  and  _184
REMARK   80  A    between atoms: _183  and  _186
REMARK   81  A    between atoms: _189  and  _191
REMARK   82  A    between atoms: _191  and  _192
REMARK   83  A    between atoms: _191  and  _194
REMARK   84  A    between atoms: _194  and  _195
REMARK   85  A    between atoms: _198  and  _200
REMARK   86  A    between atoms: _200  and  _201
REMARK   87  A    between atoms: _200  and  _203
REMARK   88  A    between atoms: _203  and  _204
REMARK   89  A    between atoms: _208  and  _209
REMARK   90  A    between atoms: _214  and  _216
REMARK   91  A    between atoms: _216  and  _217
REMARK   92  A    between atoms: _216  and  _219
REMARK   93  A    between atoms: _222  and  _224
REMARK   94  A    between atoms: _224  and  _225
REMARK   95  A    between atoms: _224  and  _227
REMARK   96  A    between atoms: _227  and  _228
REMARK   97  A    between atoms: _233  and  _235
REMARK   98  A    between atoms: _235  and  _236
REMARK   99  A    between atoms: _235  and  _238
REMARK  100  A    between atoms: _238  and  _239
REMARK  101  A    between atoms: _242  and  _244
REMARK  102  A    between atoms: _244  and  _245
REMARK  103  A    between atoms: _244  and  _247
REMARK  104  A    between atoms: _247  and  _248
REMARK  105  A    between atoms: _251  and  _253
REMARK  106  A    between atoms: _253  and  _254
REMARK  107  A    between atoms: _256  and  _258
REMARK  108  A    between atoms: _258  and  _259
REMARK  109  A    between atoms: _258  and  _261
REMARK  110  A    between atoms: _261  and  _262
REMARK  111  A    between atoms: _262  and  _263
REMARK  112  A    between atoms: _263  and  _264
REMARK  113  A    between atoms: _273  and  _275
REMARK  114  A    between atoms: _275  and  _276
REMARK  115  A    between atoms: _275  and  _278
REMARK  116  A    between atoms: _278  and  _279
REMARK  117  A    between atoms: _279  and  _280
REMARK  118  A    between atoms: _280  and  _281
REMARK  119  A    between atoms: _290  and  _292
REMARK  120  A    between atoms: _292  and  _293
REMARK  121  A    between atoms: _292  and  _295
REMARK  122  A    between atoms: _295  and  _296
REMARK  123  A    between atoms: _299  and  _301
REMARK  124  A    between atoms: _301  and  _302
REMARK  125  A    between atoms: _301  and  _304
REMARK  126  A    between atoms: _304  and  _305
REMARK  127  A    between atoms: _308  and  _310
REMARK  128  A    between atoms: _310  and  _311
REMARK  129  A    between atoms: _310  and  _313
REMARK  130  A    between atoms: _313  and  _314
REMARK  131  A    between atoms: _317  and  _319
REMARK  132  A    between atoms: _319  and  _320
REMARK  133  A    between atoms: _319  and  _322
REMARK  134  A    between atoms: _322  and  _323
REMARK  135  A    between atoms: _326  and  _328
REMARK  136  A    between atoms: _328  and  _329
REMARK  137  A    between atoms: _328  and  _331
REMARK  138  A    between atoms: _331  and  _332
REMARK  139  A    between atoms: _335  and  _337
REMARK  140  A    between atoms: _337  and  _338
REMARK  141  A    between atoms: _340  and  _342
REMARK  142  A    between atoms: _342  and  _343
REMARK  143  A    between atoms: _346  and  _348
REMARK  144  A    between atoms: _348  and  _349
REMARK  145  A    between atoms: _348  and  _351
REMARK  146  A    between atoms: _351  and  _352
REMARK  147  A    between atoms: _355  and  _357
REMARK  148  A    between atoms: _357  and  _358
REMARK  149  A    between atoms: _357  and  _360
REMARK  150  A    between atoms: _360  and  _361
REMARK  151  A    between atoms: _364  and  _366
REMARK  152  A    between atoms: _366  and  _367
REMARK  153  A    between atoms: _366  and  _369
REMARK  154  A    between atoms: _369  and  _370
REMARK  155  A    between atoms: _373  and  _375
REMARK  156  A    between atoms: _375  and  _376
REMARK  157  A    between atoms: _375  and  _378
REMARK  158  A    between atoms: _381  and  _383
REMARK  159  A    between atoms: _383  and  _384
REMARK  160  A    between atoms: _383  and  _386
REMARK  161  A    between atoms: _386  and  _387
REMARK  162  A    between atoms: _387  and  _388
REMARK  163  A    between atoms: _388  and  _389
REMARK  164  A    between atoms: _389  and  _390
REMARK  165  A    between atoms: _394  and  _396
REMARK  166  A    between atoms: _396  and  _397
REMARK  167  A    between atoms: _396  and  _399
REMARK  168  A    between atoms: _399  and  _400
REMARK  169  A    between atoms: _400  and  _401
REMARK  170  A    between atoms: _403  and  _405
REMARK  171  A    between atoms: _405  and  _406
REMARK  172  A    between atoms: _405  and  _408
REMARK  173  A    between atoms: _408  and  _409
REMARK  174  A    between atoms: _412  and  _414
REMARK  175  A    between atoms: _414  and  _415
REMARK  176  A    between atoms: _417  and  _419
REMARK  177  A    between atoms: _419  and  _420
REMARK  178  A    between atoms: _422  and  _424
REMARK  179  A    between atoms: _424  and  _425
REMARK  180  A    between atoms: _424  and  _427
REMARK  181  A    between atoms: _427  and  _428
REMARK  182  A    between atoms: _431  and  _433
REMARK  183  A    between atoms: _433  and  _434
REMARK  184  A    between atoms: _436  and  _438
REMARK  185  A    between atoms: _438  and  _439
REMARK  186  A    between atoms: _441  and  _443
REMARK  187  A    between atoms: _443  and  _444
REMARK  188  A    between atoms: _443  and  _446
REMARK  189  A    between atoms: _446  and  _447
REMARK  190  A    between atoms: _453  and  _455
REMARK  191  A    between atoms: _455  and  _456
REMARK  192  A    between atoms: _455  and  _458
REMARK  193  A    between atoms: _458  and  _459
REMARK  194  A    between atoms: _462  and  _464
REMARK  195  A    between atoms: _464  and  _465
REMARK  196  A    between atoms: _464  and  _467
REMARK  197  A    between atoms: _470  and  _472
REMARK  198  A    between atoms: _472  and  _473
REMARK  199  A    between atoms: _472  and  _475
REMARK  200  A    between atoms: _475  and  _476
REMARK  201  A    between atoms: _480  and  _481
REMARK  202  A    between atoms: _486  and  _488
REMARK  203  A    between atoms: _488  and  _489
REMARK  204  A    between atoms: _488  and  _491
REMARK  205  A    between atoms: _491  and  _492
REMARK  206  A    between atoms: _496  and  _497
REMARK  207  A    between atoms: _502  and  _504
REMARK  208  A    between atoms: _504  and  _505
REMARK  209  A    between atoms: _504  and  _507
REMARK  210  A    between atoms: _510  and  _512
REMARK  211  A    between atoms: _512  and  _513
REMARK  212  A    between atoms: _512  and  _515
REMARK  213  A    between atoms: _515  and  _516
REMARK  214  A    between atoms: _521  and  _523
REMARK  215  A    between atoms: _523  and  _524
REMARK  216  A    between atoms: _523  and  _526
REMARK  217  A    between atoms: _526  and  _527
REMARK  218  A    between atoms: _530  and  _532
REMARK  219  A    between atoms: _532  and  _533
REMARK  220  A    between atoms: _532  and  _535
REMARK  221  A    between atoms: _535  and  _536
REMARK  222  A    between atoms: _539  and  _541
REMARK  223  A    between atoms: _541  and  _542
REMARK  224  A    between atoms: _544  and  _546
REMARK  225  A    between atoms: _546  and  _547
REMARK  226  A    between atoms: _546  and  _549
REMARK  227  A    between atoms: _549  and  _550
REMARK  228  A    between atoms: _550  and  _551
REMARK  229  A    between atoms: _551  and  _552
REMARK                            x       y       z     vdW  Elec       q    Type
REMARK                         _______ _______ _______ _____ _____    ______ ____
ROOT
ATOM      1  C   ASN A   5      11.818  22.641  -4.591  0.00  0.00    +0.241 C 
ATOM      2  N   ILE A   6      12.854  21.962  -4.113  0.00  0.00    -0.297 N 
ATOM      3  H   ILE A   6      12.904  20.938  -4.289  0.00  0.00    +0.150 HD
ATOM      4  O   ASN A   5      11.689  23.859  -4.464  0.00  0.00    -0.273 OA
ENDROOT
BRANCH   1   5
ATOM      5  CA  ASN A   5      10.759  21.814  -5.311  0.00  0.00    +0.158 C 
BRANCH   5   8
ATOM      6  C   VAL A   4       9.133  21.847  -3.537  0.00  0.00    +0.241 C 
ATOM      7  O   VAL A   4       9.831  21.106  -2.839  0.00  0.00    -0.273 OA
ATOM      8  N   ASN A   5       9.482  22.226  -4.761  0.00  0.00    -0.297 N 
ATOM      9  H   ASN A   5       8.840  22.818  -5.325  0.00  0.00    +0.150 HD
BRANCH   6  10
ATOM     10  CA  VAL A   4       7.801  22.368  -3.027  0.00  0.00    +0.149 C 
BRANCH  10  12
ATOM     11  C   PRO A   3       5.966  21.321  -1.811  0.00  0.00    +0.241 C 
ATOM     12  N   VAL A   4       7.272  21.520  -1.964  0.00  0.00    -0.297 N 
ATOM     13  H   VAL A   4       7.934  21.059  -1.308  0.00  0.00    +0.150 HD
ATOM     14  O   PRO A   3       5.124  21.833  -2.545  0.00  0.00    -0.273 OA
BRANCH  11  20
ATOM     15  C   THR A   2       6.895  18.443  -1.248  0.00  0.00    +0.246 C 
ATOM     16  N   PRO A   3       6.550  19.391  -0.362  0.00  0.00    -0.272 N 
ATOM     17  CD  PRO A   3       6.978  19.456   1.047  0.00  0.00    +0.094 C 
ATOM     18  CG  PRO A   3       5.808  20.159   1.694  0.00  0.00    +0.024 C 
ATOM     19  CB  PRO A   3       5.465  21.195   0.663  0.00  0.00    +0.031 C 
ATOM     20  CA  PRO A   3       5.549  20.421  -0.649  0.00  0.00    +0.152 C 
ATOM     21  O   THR A   2       6.383  18.375  -2.363  0.00  0.00    -0.273 OA
BRANCH  15  22
ATOM     22  CA  THR A   2       7.951  17.443  -0.811  0.00  0.00    +0.176 C 
BRANCH  22  25
ATOM     23  C   PRO A   1       7.182  15.195  -0.416  0.00  0.00    +0.239 C 
ATOM     24  O   PRO A   1       7.028  15.439   0.776  0.00  0.00    -0.274 OA
ATOM     25  N   THR A   2       7.641  16.098  -1.271  0.00  0.00    -0.295 N 
ATOM     26  H   THR A   2       7.779  15.845  -2.270  0.00  0.00    +0.150 HD
BRANCH  23  31
ATOM     27  N   PRO A   1       8.031  13.030  -1.351  0.00  0.00    -0.210 NA
ATOM     28  CD  PRO A   1       8.233  11.903  -0.421  0.00  0.00    +0.089 C 
ATOM     29  CG  PRO A   1       7.335  12.271   0.741  0.00  0.00    +0.021 C 
ATOM     30  CB  PRO A   1       6.167  12.922   0.055  0.00  0.00    +0.028 C 
ATOM     31  CA  PRO A   1       6.853  13.815  -0.975  0.00  0.00    +0.149 C 
ENDBRANCH  23  31
ENDBRANCH  22  25
BRANCH  22  32
ATOM     32  CB  THR A   2       9.315  17.932  -1.326  0.00  0.00    +0.137 C 
ATOM     33  CG2 THR A   2       9.400  17.801  -2.846  0.00  0.00    +0.034 C 
BRANCH  32  34
ATOM     34  OG1 THR A   2       9.489  19.302  -0.945  0.00  0.00    -0.382 OA
ATOM     35  HG1 THR A   2      10.365  19.626  -1.273  0.00  0.00    +0.210 HD
ENDBRANCH  32  34
ENDBRANCH  22  32
ENDBRANCH  15  22
ENDBRANCH  11  20
ENDBRANCH  10  12
BRANCH  10  36
ATOM     36  CB  VAL A   4       8.039  23.819  -2.540  0.00  0.00    +0.027 C 
ATOM     37  CG2 VAL A   4       9.068  23.825  -1.402  0.00  0.00    +0.002 C 
ATOM     38  CG1 VAL A   4       6.730  24.446  -2.093  0.00  0.00    +0.002 C 
ENDBRANCH  10  36
ENDBRANCH   6  10
ENDBRANCH   5   8
BRANCH   5  39
ATOM     39  CB  ASN A   5      10.789  22.056  -6.814  0.00  0.00    +0.114 C 
BRANCH  39  40
ATOM     40  CG  ASN A   5       9.826  21.156  -7.549  0.00  0.00    +0.222 C 
ATOM     41  OD1 ASN A   5       9.764  19.955  -7.285  0.00  0.00    -0.275 OA
ATOM     42  ND2 ASN A   5       9.068  21.725  -8.474  0.00  0.00    -0.329 N 
ATOM     43 HD21 ASN A   5       9.155  22.744  -8.663  0.00  0.00    +0.145 HD
ATOM     44 HD22 ASN A   5       8.386  21.153  -9.011  0.00  0.00    +0.145 HD
ENDBRANCH  39  40
ENDBRANCH   5  39
ENDBRANCH   1   5
BRANCH   2  45
ATOM     45  CA  ILE A   6      13.925  22.595  -3.350  0.00  0.00    +0.149 C 
BRANCH  45  46
ATOM     46  C   ILE A   6      15.303  22.444  -3.990  0.00  0.00    +0.241 C 
ATOM     47  N   ILE A   7      15.979  23.566  -4.220  0.00  0.00    -0.297 N 
ATOM     48  H   ILE A   7      15.534  24.480  -4.000  0.00  0.00    +0.150 HD
ATOM     49  O   ILE A   6      15.738  21.330  -4.268  0.00  0.00    -0.273 OA
BRANCH  47  50
ATOM     50  CA  ILE A   7      17.329  23.546  -4.773  0.00  0.00    +0.149 C 
BRANCH  50  51
ATOM     51  C   ILE A   7      18.240  23.758  -3.562  0.00  0.00    +0.241 C 
ATOM     52  O   ILE A   7      18.321  24.869  -3.014  0.00  0.00    -0.273 OA
ATOM     53  N   GLY A   8      18.903  22.687  -3.135  0.00  0.00    -0.295 N 
ATOM     54  H   GLY A   8      18.793  21.783  -3.637  0.00  0.00    +0.150 HD
BRANCH  53  55
ATOM     55  CA  GLY A   8      19.779  22.761  -1.976  0.00  0.00    +0.176 C 
BRANCH  55  56
ATOM     56  C   GLY A   8      21.217  23.171  -2.244  0.00  0.00    +0.243 C 
ATOM     57  N   ARG A   9      22.024  23.181  -1.184  0.00  0.00    -0.298 N 
ATOM     58  H   ARG A   9      21.644  22.893  -0.259  0.00  0.00    +0.150 HD
ATOM     59  O   GLY A   8      21.597  23.455  -3.381  0.00  0.00    -0.273 OA
BRANCH  57  60
ATOM     60  CA  ARG A   9      23.421  23.582  -1.279  0.00  0.00    +0.137 C 
BRANCH  60  61
ATOM     61  C   ARG A   9      24.263  22.776  -2.259  0.00  0.00    +0.227 C 
ATOM     62  O   ARG A   9      25.183  23.318  -2.874  0.00  0.00    -0.286 OA
ENDBRANCH  60  61
BRANCH  60  63
ATOM     63  CB  ARG A   9      24.070  23.574   0.114  0.00  0.00    +0.031 C 
BRANCH  63  64
ATOM     64  CG  ARG A   9      23.494  24.648   1.039  0.00  0.00    +0.045 C 
BRANCH  64  65
ATOM     65  CD  ARG A   9      24.284  24.809   2.338  0.00  0.00    +0.174 C 
BRANCH  65  66
ATOM     66  NE  ARG A   9      24.289  23.581   3.123  0.00  0.00    -0.265 N 
ATOM     67  HE  ARG A   9      23.462  23.383   3.722  0.00  0.00    +0.259 HD
ATOM     68  CZ  ARG A   9      25.283  22.698   3.123  0.00  0.00    +0.342 C 
ATOM     69  NH2 ARG A   9      25.181  21.581   3.836  0.00  0.00    -0.292 N 
ATOM     70 HH21 ARG A   9      24.323  21.397   4.394  0.00  0.00    +0.255 HD
ATOM     71 HH22 ARG A   9      25.959  20.891   3.835  0.00  0.00    +0.255 HD
ATOM     72  NH1 ARG A   9      26.362  22.918   2.383  0.00  0.00    -0.292 N 
ATOM     73 HH11 ARG A   9      27.141  22.229   2.381  0.00  0.00    +0.255 HD
ATOM     74 HH12 ARG A   9      26.429  23.780   1.805  0.00  0.00    +0.255 HD
ENDBRANCH  65  66
ENDBRANCH  64  65
ENDBRANCH  63  64
ENDBRANCH  60  63
ENDBRANCH  57  60
ENDBRANCH  55  56
ENDBRANCH  53  55
ENDBRANCH  50  51
BRANCH  50  75
ATOM     75  CB  ILE A   7      17.560  24.686  -5.787  0.00  0.00    +0.027 C 
ATOM     76  CG2 ILE A   7      18.986  24.601  -6.347  0.00  0.00    +0.002 C 
BRANCH  75  77
ATOM     77  CG1 ILE A   7      16.526  24.606  -6.914  0.00  0.00    +0.002 C 
ATOM     78  CD1 ILE A   7      16.504  23.273  -7.653  0.00  0.00    +0.000 C 
ENDBRANCH  75  77
ENDBRANCH  50  75
ENDBRANCH  47  50
ENDBRANCH  45  46
BRANCH  45  79
ATOM     79  CB  ILE A   6      13.997  21.980  -1.916  0.00  0.00    +0.027 C 
ATOM     80  CG2 ILE A   6      15.218  22.523  -1.159  0.00  0.00    +0.002 C 
BRANCH  79  81
ATOM     81  CG1 ILE A   6      12.709  22.300  -1.151  0.00  0.00    +0.002 C 
ATOM     82  CD1 ILE A   6      12.557  21.523   0.149  0.00  0.00    +0.000 C 
ENDBRANCH  79  81
ENDBRANCH  45  79
ENDBRANCH   2  45
TORSDOF 29
REMARK  Name = ../refined-set-2016/1ec2/1ec2_pocket.pdb
REMARK  229 active torsions:
REMARK  status: ('A' for Active; 'I' for Inactive)
REMARK    1  A    between atoms: _1  and  _3
REMARK    2  A    between atoms: _3  and  _4
REMARK    3  A    between atoms: _3  and  _6
REMARK    4  A    between atoms: _6  and  _7
REMARK    5  A    between atoms: _7  and  _8
REMARK    6  A    between atoms: _8  and  _9
REMARK    7  A    between atoms: _18  and  _20
REMARK    8  A    between atoms: _20  and  _21
REMARK    9  A    between atoms: _20  and  _23
REMARK   10  A    between atoms: _23  and  _24
REMARK   11  A    between atoms: _27  and  _29
REMARK   12  A    between atoms: _29  and  _30
REMARK   13  A    between atoms: _29  and  _32
REMARK   14  A    between atoms: _32  and  _33
REMARK   15  A    between atoms: _36  and  _38
REMARK   16  A    between atoms: _38  and  _39
REMARK   17  A    between atoms: _38  and  _41
REMARK   18  A    between atoms: _41  and  _42
REMARK   19  A    between atoms: _45  and  _47
REMARK   20  A    between atoms: _47  and  _48
REMARK   21  A    between atoms: _47  and  _50
REMARK   22  A    between atoms: _50  and  _51
REMARK   23  A    between atoms: _54  and  _56
REMARK   24  A    between atoms: _56  and  _57
REMARK   25  A    between atoms: _59  and  _61
REMARK   26  A    between atoms: _61  and  _62
REMARK   27  A    between atoms: _65  and  _67
REMARK   28  A    between atoms: _67  and  _68
REMARK   29  A    between atoms: _67  and  _70
REMARK   30  A    between atoms: _70  and  _71
REMARK   31  A    between atoms: _74  and  _76
REMARK   32  A    between atoms: _76  and  _77
REMARK   33  A    between atoms: _76  and  _79
REMARK   34  A    between atoms: _79  and  _80
REMARK   35  A    between atoms: _83  and  _85
REMARK   36  A    between atoms: _85  and  _86
REMARK   37  A    between atoms: _85  and  _88
REMARK   38  A    between atoms: _88  and  _89
REMARK   39  A    between atoms: _92  and  _94
REMARK   40  A    between atoms: _94  and  _95
REMARK   41  A    between atoms: _94  and  _97
REMARK   42  A    between atoms: _100  and  _102
REMARK   43  A    between atoms: _102  and  _103
REMARK   44  A    between atoms: _102  and  _105
REMARK   45  A    between atoms: _105  and  _106
REMARK   46  A    between atoms: _106  and  _107
REMARK   47  A    between atoms: _107  and  _108
REMARK   48  A    between atoms: _108  and  _109
REMARK   49  A    between atoms: _113  and  _115
REMARK   50  A    between atoms: _115  and  _116
REMARK   51  A    between atoms: _115  and  _118
REMARK   52  A    between atoms: _118  and  _119
REMARK   53  A    between atoms: _119  and  _120
REMARK   54  A    between atoms: _122  and  _124
REMARK   55  A    between atoms: _124  and  _125
REMARK   56  A    between atoms: _124  and  _127
REMARK   57  A    between atoms: _127  and  _128
REMARK   58  A    between atoms: _131  and  _133
REMARK   59  A    between atoms: _133  and  _134
REMARK   60  A    between atoms: _136  and  _138
REMARK   61  A    between atoms: _138  and  _139
REMARK   62  A    between atoms: _141  and  _143
REMARK   63  A    between atoms: _143  and  _144
REMARK   64  A    between atoms: _143  and  _146
REMARK   65  A    between atoms: _146  and  _147
REMARK   66  A    between atoms: _150  and  _152
REMARK   67  A    between atoms: _152  and  _153
REMARK   68  A    between atoms: _155  and  _157
REMARK   69  A    between atoms: _157  and  _158
REMARK   70  A    between atoms: _160  and  _162
REMARK   71  A    between atoms: _162  and  _163
REMARK   72  A    between atoms: _162  and  _165
REMARK   73  A    between atoms: _165  and  _166
REMARK   74  A    between atoms: _172  and  _174
REMARK   75  A    between atoms: _174  and  _175
REMARK   76  A    between atoms: _174  and  _177
REMARK   77  A    between atoms: _177  and  _178
REMARK   78  A    between atoms: _181  and  _183
REMARK   79  A    between atoms: _183  and  _184
REMARK   80  A    between atoms: _183  and  _186
REMARK   81  A    between atoms: _189  and  _191
REMARK   82  A    between atoms: _191  and  _192
REMARK   83  A    between atoms: _191  and  _194
REMARK   84  A    between atoms: _194  and  _195
REMARK   85  A    between atoms: _198  and  _200
REMARK   86  A    between atoms: _200  and  _201
REMARK   87  A    between atoms: _200  and  _203
REMARK   88  A    between atoms: _203  and  _204
REMARK   89  A    between atoms: _208  and  _209
REMARK   90  A    between atoms: _214  and  _216
REMARK   91  A    between atoms: _216  and  _217
REMARK   92  A    between atoms: _216  and  _219
REMARK   93  A    between atoms: _222  and  _224
REMARK   94  A    between atoms: _224  and  _225
REMARK   95  A    between atoms: _224  and  _227
REMARK   96  A    between atoms: _227  and  _228
REMARK   97  A    between atoms: _233  and  _235
REMARK   98  A    between atoms: _235  and  _236
REMARK   99  A    between atoms: _235  and  _238
REMARK  100  A    between atoms: _238  and  _239
REMARK  101  A    between atoms: _242  and  _244
REMARK  102  A    between atoms: _244  and  _245
REMARK  103  A    between atoms: _244  and  _247
REMARK  104  A    between atoms: _247  and  _248
REMARK  105  A    between atoms: _251  and  _253
REMARK  106  A    between atoms: _253  and  _254
REMARK  107  A    between atoms: _256  and  _258
REMARK  108  A    between atoms: _258  and  _259
REMARK  109  A    between atoms: _258  and  _261
REMARK  110  A    between atoms: _261  and  _262
REMARK  111  A    between atoms: _262  and  _263
REMARK  112  A    between atoms: _263  and  _264
REMARK  113  A    between atoms: _273  and  _275
REMARK  114  A    between atoms: _275  and  _276
REMARK  115  A    between atoms: _275  and  _278
REMARK  116  A    between atoms: _278  and  _279
REMARK  117  A    between atoms: _279  and  _280
REMARK  118  A    between atoms: _280  and  _281
REMARK  119  A    between atoms: _290  and  _292
REMARK  120  A    between atoms: _292  and  _293
REMARK  121  A    between atoms: _292  and  _295
REMARK  122  A    between atoms: _295  and  _296
REMARK  123  A    between atoms: _299  and  _301
REMARK  124  A    between atoms: _301  and  _302
REMARK  125  A    between atoms: _301  and  _304
REMARK  126  A    between atoms: _304  and  _305
REMARK  127  A    between atoms: _308  and  _310
REMARK  128  A    between atoms: _310  and  _311
REMARK  129  A    between atoms: _310  and  _313
REMARK  130  A    between atoms: _313  and  _314
REMARK  131  A    between atoms: _317  and  _319
REMARK  132  A    between atoms: _319  and  _320
REMARK  133  A    between atoms: _319  and  _322
REMARK  134  A    between atoms: _322  and  _323
REMARK  135  A    between atoms: _326  and  _328
REMARK  136  A    between atoms: _328  and  _329
REMARK  137  A    between atoms: _328  and  _331
REMARK  138  A    between atoms: _331  and  _332
REMARK  139  A    between atoms: _335  and  _337
REMARK  140  A    between atoms: _337  and  _338
REMARK  141  A    between atoms: _340  and  _342
REMARK  142  A    between atoms: _342  and  _343
REMARK  143  A    between atoms: _346  and  _348
REMARK  144  A    between atoms: _348  and  _349
REMARK  145  A    between atoms: _348  and  _351
REMARK  146  A    between atoms: _351  and  _352
REMARK  147  A    between atoms: _355  and  _357
REMARK  148  A    between atoms: _357  and  _358
REMARK  149  A    between atoms: _357  and  _360
REMARK  150  A    between atoms: _360  and  _361
REMARK  151  A    between atoms: _364  and  _366
REMARK  152  A    between atoms: _366  and  _367
REMARK  153  A    between atoms: _366  and  _369
REMARK  154  A    between atoms: _369  and  _370
REMARK  155  A    between atoms: _373  and  _375
REMARK  156  A    between atoms: _375  and  _376
REMARK  157  A    between atoms: _375  and  _378
REMARK  158  A    between atoms: _381  and  _383
REMARK  159  A    between atoms: _383  and  _384
REMARK  160  A    between atoms: _383  and  _386
REMARK  161  A    between atoms: _386  and  _387
REMARK  162  A    between atoms: _387  and  _388
REMARK  163  A    between atoms: _388  and  _389
REMARK  164  A    between atoms: _389  and  _390
REMARK  165  A    between atoms: _394  and  _396
REMARK  166  A    between atoms: _396  and  _397
REMARK  167  A    between atoms: _396  and  _399
REMARK  168  A    between atoms: _399  and  _400
REMARK  169  A    between atoms: _400  and  _401
REMARK  170  A    between atoms: _403  and  _405
REMARK  171  A    between atoms: _405  and  _406
REMARK  172  A    between atoms: _405  and  _408
REMARK  173  A    between atoms: _408  and  _409
REMARK  174  A    between atoms: _412  and  _414
REMARK  175  A    between atoms: _414  and  _415
REMARK  176  A    between atoms: _417  and  _419
REMARK  177  A    between atoms: _419  and  _420
REMARK  178  A    between atoms: _422  and  _424
REMARK  179  A    between atoms: _424  and  _425
REMARK  180  A    between atoms: _424  and  _427
REMARK  181  A    between atoms: _427  and  _428
REMARK  182  A    between atoms: _431  and  _433
REMARK  183  A    between atoms: _433  and  _434
REMARK  184  A    between atoms: _436  and  _438
REMARK  185  A    between atoms: _438  and  _439
REMARK  186  A    between atoms: _441  and  _443
REMARK  187  A    between atoms: _443  and  _444
REMARK  188  A    between atoms: _443  and  _446
REMARK  189  A    between atoms: _446  and  _447
REMARK  190  A    between atoms: _453  and  _455
REMARK  191  A    between atoms: _455  and  _456
REMARK  192  A    between atoms: _455  and  _458
REMARK  193  A    between atoms: _458  and  _459
REMARK  194  A    between atoms: _462  and  _464
REMARK  195  A    between atoms: _464  and  _465
REMARK  196  A    between atoms: _464  and  _467
REMARK  197  A    between atoms: _470  and  _472
REMARK  198  A    between atoms: _472  and  _473
REMARK  199  A    between atoms: _472  and  _475
REMARK  200  A    between atoms: _475  and  _476
REMARK  201  A    between atoms: _480  and  _481
REMARK  202  A    between atoms: _486  and  _488
REMARK  203  A    between atoms: _488  and  _489
REMARK  204  A    between atoms: _488  and  _491
REMARK  205  A    between atoms: _491  and  _492
REMARK  206  A    between atoms: _496  and  _497
REMARK  207  A    between atoms: _502  and  _504
REMARK  208  A    between atoms: _504  and  _505
REMARK  209  A    between atoms: _504  and  _507
REMARK  210  A    between atoms: _510  and  _512
REMARK  211  A    between atoms: _512  and  _513
REMARK  212  A    between atoms: _512  and  _515
REMARK  213  A    between atoms: _515  and  _516
REMARK  214  A    between atoms: _521  and  _523
REMARK  215  A    between atoms: _523  and  _524
REMARK  216  A    between atoms: _523  and  _526
REMARK  217  A    between atoms: _526  and  _527
REMARK  218  A    between atoms: _530  and  _532
REMARK  219  A    between atoms: _532  and  _533
REMARK  220  A    between atoms: _532  and  _535
REMARK  221  A    between atoms: _535  and  _536
REMARK  222  A    between atoms: _539  and  _541
REMARK  223  A    between atoms: _541  and  _542
REMARK  224  A    between atoms: _544  and  _546
REMARK  225  A    between atoms: _546  and  _547
REMARK  226  A    between atoms: _546  and  _549
REMARK  227  A    between atoms: _549  and  _550
REMARK  228  A    between atoms: _550  and  _551
REMARK  229  A    between atoms: _551  and  _552
REMARK                            x       y       z     vdW  Elec       q    Type
REMARK                         _______ _______ _______ _____ _____    ______ ____
ROOT
ATOM      1  O   HOH     1      22.982  16.979  10.777  0.00  0.00    +0.000 OA
ENDROOT
TORSDOF 0
REMARK  Name = ../refined-set-2016/1ec2/1ec2_pocket.pdb
REMARK  229 active torsions:
REMARK  status: ('A' for Active; 'I' for Inactive)
REMARK    1  A    between atoms: _1  and  _3
REMARK    2  A    between atoms: _3  and  _4
REMARK    3  A    between atoms: _3  and  _6
REMARK    4  A    between atoms: _6  and  _7
REMARK    5  A    between atoms: _7  and  _8
REMARK    6  A    between atoms: _8  and  _9
REMARK    7  A    between atoms: _18  and  _20
REMARK    8  A    between atoms: _20  and  _21
REMARK    9  A    between atoms: _20  and  _23
REMARK   10  A    between atoms: _23  and  _24
REMARK   11  A    between atoms: _27  and  _29
REMARK   12  A    between atoms: _29  and  _30
REMARK   13  A    between atoms: _29  and  _32
REMARK   14  A    between atoms: _32  and  _33
REMARK   15  A    between atoms: _36  and  _38
REMARK   16  A    between atoms: _38  and  _39
REMARK   17  A    between atoms: _38  and  _41
REMARK   18  A    between atoms: _41  and  _42
REMARK   19  A    between atoms: _45  and  _47
REMARK   20  A    between atoms: _47  and  _48
REMARK   21  A    between atoms: _47  and  _50
REMARK   22  A    between atoms: _50  and  _51
REMARK   23  A    between atoms: _54  and  _56
REMARK   24  A    between atoms: _56  and  _57
REMARK   25  A    between atoms: _59  and  _61
REMARK   26  A    between atoms: _61  and  _62
REMARK   27  A    between atoms: _65  and  _67
REMARK   28  A    between atoms: _67  and  _68
REMARK   29  A    between atoms: _67  and  _70
REMARK   30  A    between atoms: _70  and  _71
REMARK   31  A    between atoms: _74  and  _76
REMARK   32  A    between atoms: _76  and  _77
REMARK   33  A    between atoms: _76  and  _79
REMARK   34  A    between atoms: _79  and  _80
REMARK   35  A    between atoms: _83  and  _85
REMARK   36  A    between atoms: _85  and  _86
REMARK   37  A    between atoms: _85  and  _88
REMARK   38  A    between atoms: _88  and  _89
REMARK   39  A    between atoms: _92  and  _94
REMARK   40  A    between atoms: _94  and  _95
REMARK   41  A    between atoms: _94  and  _97
REMARK   42  A    between atoms: _100  and  _102
REMARK   43  A    between atoms: _102  and  _103
REMARK   44  A    between atoms: _102  and  _105
REMARK   45  A    between atoms: _105  and  _106
REMARK   46  A    between atoms: _106  and  _107
REMARK   47  A    between atoms: _107  and  _108
REMARK   48  A    between atoms: _108  and  _109
REMARK   49  A    between atoms: _113  and  _115
REMARK   50  A    between atoms: _115  and  _116
REMARK   51  A    between atoms: _115  and  _118
REMARK   52  A    between atoms: _118  and  _119
REMARK   53  A    between atoms: _119  and  _120
REMARK   54  A    between atoms: _122  and  _124
REMARK   55  A    between atoms: _124  and  _125
REMARK   56  A    between atoms: _124  and  _127
REMARK   57  A    between atoms: _127  and  _128
REMARK   58  A    between atoms: _131  and  _133
REMARK   59  A    between atoms: _133  and  _134
REMARK   60  A    between atoms: _136  and  _138
REMARK   61  A    between atoms: _138  and  _139
REMARK   62  A    between atoms: _141  and  _143
REMARK   63  A    between atoms: _143  and  _144
REMARK   64  A    between atoms: _143  and  _146
REMARK   65  A    between atoms: _146  and  _147
REMARK   66  A    between atoms: _150  and  _152
REMARK   67  A    between atoms: _152  and  _153
REMARK   68  A    between atoms: _155  and  _157
REMARK   69  A    between atoms: _157  and  _158
REMARK   70  A    between atoms: _160  and  _162
REMARK   71  A    between atoms: _162  and  _163
REMARK   72  A    between atoms: _162  and  _165
REMARK   73  A    between atoms: _165  and  _166
REMARK   74  A    between atoms: _172  and  _174
REMARK   75  A    between atoms: _174  and  _175
REMARK   76  A    between atoms: _174  and  _177
REMARK   77  A    between atoms: _177  and  _178
REMARK   78  A    between atoms: _181  and  _183
REMARK   79  A    between atoms: _183  and  _184
REMARK   80  A    between atoms: _183  and  _186
REMARK   81  A    between atoms: _189  and  _191
REMARK   82  A    between atoms: _191  and  _192
REMARK   83  A    between atoms: _191  and  _194
REMARK   84  A    between atoms: _194  and  _195
REMARK   85  A    between atoms: _198  and  _200
REMARK   86  A    between atoms: _200  and  _201
REMARK   87  A    between atoms: _200  and  _203
REMARK   88  A    between atoms: _203  and  _204
REMARK   89  A    between atoms: _208  and  _209
REMARK   90  A    between atoms: _214  and  _216
REMARK   91  A    between atoms: _216  and  _217
REMARK   92  A    between atoms: _216  and  _219
REMARK   93  A    between atoms: _222  and  _224
REMARK   94  A    between atoms: _224  and  _225
REMARK   95  A    between atoms: _224  and  _227
REMARK   96  A    between atoms: _227  and  _228
REMARK   97  A    between atoms: _233  and  _235
REMARK   98  A    between atoms: _235  and  _236
REMARK   99  A    between atoms: _235  and  _238
REMARK  100  A    between atoms: _238  and  _239
REMARK  101  A    between atoms: _242  and  _244
REMARK  102  A    between atoms: _244  and  _245
REMARK  103  A    between atoms: _244  and  _247
REMARK  104  A    between atoms: _247  and  _248
REMARK  105  A    between atoms: _251  and  _253
REMARK  106  A    between atoms: _253  and  _254
REMARK  107  A    between atoms: _256  and  _258
REMARK  108  A    between atoms: _258  and  _259
REMARK  109  A    between atoms: _258  and  _261
REMARK  110  A    between atoms: _261  and  _262
REMARK  111  A    between atoms: _262  and  _263
REMARK  112  A    between atoms: _263  and  _264
REMARK  113  A    between atoms: _273  and  _275
REMARK  114  A    between atoms: _275  and  _276
REMARK  115  A    between atoms: _275  and  _278
REMARK  116  A    between atoms: _278  and  _279
REMARK  117  A    between atoms: _279  and  _280
REMARK  118  A    between atoms: _280  and  _281
REMARK  119  A    between atoms: _290  and  _292
REMARK  120  A    between atoms: _292  and  _293
REMARK  121  A    between atoms: _292  and  _295
REMARK  122  A    between atoms: _295  and  _296
REMARK  123  A    between atoms: _299  and  _301
REMARK  124  A    between atoms: _301  and  _302
REMARK  125  A    between atoms: _301  and  _304
REMARK  126  A    between atoms: _304  and  _305
REMARK  127  A    between atoms: _308  and  _310
REMARK  128  A    between atoms: _310  and  _311
REMARK  129  A    between atoms: _310  and  _313
REMARK  130  A    between atoms: _313  and  _314
REMARK  131  A    between atoms: _317  and  _319
REMARK  132  A    between atoms: _319  and  _320
REMARK  133  A    between atoms: _319  and  _322
REMARK  134  A    between atoms: _322  and  _323
REMARK  135  A    between atoms: _326  and  _328
REMARK  136  A    between atoms: _328  and  _329
REMARK  137  A    between atoms: _328  and  _331
REMARK  138  A    between atoms: _331  and  _332
REMARK  139  A    between atoms: _335  and  _337
REMARK  140  A    between atoms: _337  and  _338
REMARK  141  A    between atoms: _340  and  _342
REMARK  142  A    between atoms: _342  and  _343
REMARK  143  A    between atoms: _346  and  _348
REMARK  144  A    between atoms: _348  and  _349
REMARK  145  A    between atoms: _348  and  _351
REMARK  146  A    between atoms: _351  and  _352
REMARK  147  A    between atoms: _355  and  _357
REMARK  148  A    between atoms: _357  and  _358
REMARK  149  A    between atoms: _357  and  _360
REMARK  150  A    between atoms: _360  and  _361
REMARK  151  A    between atoms: _364  and  _366
REMARK  152  A    between atoms: _366  and  _367
REMARK  153  A    between atoms: _366  and  _369
REMARK  154  A    between atoms: _369  and  _370
REMARK  155  A    between atoms: _373  and  _375
REMARK  156  A    between atoms: _375  and  _376
REMARK  157  A    between atoms: _375  and  _378
REMARK  158  A    between atoms: _381  and  _383
REMARK  159  A    between atoms: _383  and  _384
REMARK  160  A    between atoms: _383  and  _386
REMARK  161  A    between atoms: _386  and  _387
REMARK  162  A    between atoms: _387  and  _388
REMARK  163  A    between atoms: _388  and  _389
REMARK  164  A    between atoms: _389  and  _390
REMARK  165  A    between atoms: _394  and  _396
REMARK  166  A    between atoms: _396  and  _397
REMARK  167  A    between atoms: _396  and  _399
REMARK  168  A    between atoms: _399  and  _400
REMARK  169  A    between atoms: _400  and  _401
REMARK  170  A    between atoms: _403  and  _405
REMARK  171  A    between atoms: _405  and  _406
REMARK  172  A    between atoms: _405  and  _408
REMARK  173  A    between atoms: _408  and  _409
REMARK  174  A    between atoms: _412  and  _414
REMARK  175  A    between atoms: _414  and  _415
REMARK  176  A    between atoms: _417  and  _419
REMARK  177  A    between atoms: _419  and  _420
REMARK  178  A    between atoms: _422  and  _424
REMARK  179  A    between atoms: _424  and  _425
REMARK  180  A    between atoms: _424  and  _427
REMARK  181  A    between atoms: _427  and  _428
REMARK  182  A    between atoms: _431  and  _433
REMARK  183  A    between atoms: _433  and  _434
REMARK  184  A    between atoms: _436  and  _438
REMARK  185  A    between atoms: _438  and  _439
REMARK  186  A    between atoms: _441  and  _443
REMARK  187  A    between atoms: _443  and  _444
REMARK  188  A    between atoms: _443  and  _446
REMARK  189  A    between atoms: _446  and  _447
REMARK  190  A    between atoms: _453  and  _455
REMARK  191  A    between atoms: _455  and  _456
REMARK  192  A    between atoms: _455  and  _458
REMARK  193  A    between atoms: _458  and  _459
REMARK  194  A    between atoms: _462  and  _464
REMARK  195  A    between atoms: _464  and  _465
REMARK  196  A    between atoms: _464  and  _467
REMARK  197  A    between atoms: _470  and  _472
REMARK  198  A    between atoms: _472  and  _473
REMARK  199  A    between atoms: _472  and  _475
REMARK  200  A    between atoms: _475  and  _476
REMARK  201  A    between atoms: _480  and  _481
REMARK  202  A    between atoms: _486  and  _488
REMARK  203  A    between atoms: _488  and  _489
REMARK  204  A    between atoms: _488  and  _491
REMARK  205  A    between atoms: _491  and  _492
REMARK  206  A    between atoms: _496  and  _497
REMARK  207  A    between atoms: _502  and  _504
REMARK  208  A    between atoms: _504  and  _505
REMARK  209  A    between atoms: _504  and  _507
REMARK  210  A    between atoms: _510  and  _512
REMARK  211  A    between atoms: _512  and  _513
REMARK  212  A    between atoms: _512  and  _515
REMARK  213  A    between atoms: _515  and  _516
REMARK  214  A    between atoms: _521  and  _523
REMARK  215  A    between atoms: _523  and  _524
REMARK  216  A    between atoms: _523  and  _526
REMARK  217  A    between atoms: _526  and  _527
REMARK  218  A    between atoms: _530  and  _532
REMARK  219  A    between atoms: _532  and  _533
REMARK  220  A    between atoms: _532  and  _535
REMARK  221  A    between atoms: _535  and  _536
REMARK  222  A    between atoms: _539  and  _541
REMARK  223  A    between atoms: _541  and  _542
REMARK  224  A    between atoms: _544  and  _546
REMARK  225  A    between atoms: _546  and  _547
REMARK  226  A    between atoms: _546  and  _549
REMARK  227  A    between atoms: _549  and  _550
REMARK  228  A    between atoms: _550  and  _551
REMARK  229  A    between atoms: _551  and  _552
REMARK                            x       y       z     vdW  Elec       q    Type
REMARK                         _______ _______ _______ _____ _____    ______ ____
ROOT
ATOM      1  O   HOH     1      11.134  30.911   1.496  0.00  0.00    +0.000 OA
ENDROOT
TORSDOF 0
REMARK  Name = ../refined-set-2016/1ec2/1ec2_pocket.pdb
REMARK  229 active torsions:
REMARK  status: ('A' for Active; 'I' for Inactive)
REMARK    1  A    between atoms: _1  and  _3
REMARK    2  A    between atoms: _3  and  _4
REMARK    3  A    between atoms: _3  and  _6
REMARK    4  A    between atoms: _6  and  _7
REMARK    5  A    between atoms: _7  and  _8
REMARK    6  A    between atoms: _8  and  _9
REMARK    7  A    between atoms: _18  and  _20
REMARK    8  A    between atoms: _20  and  _21
REMARK    9  A    between atoms: _20  and  _23
REMARK   10  A    between atoms: _23  and  _24
REMARK   11  A    between atoms: _27  and  _29
REMARK   12  A    between atoms: _29  and  _30
REMARK   13  A    between atoms: _29  and  _32
REMARK   14  A    between atoms: _32  and  _33
REMARK   15  A    between atoms: _36  and  _38
REMARK   16  A    between atoms: _38  and  _39
REMARK   17  A    between atoms: _38  and  _41
REMARK   18  A    between atoms: _41  and  _42
REMARK   19  A    between atoms: _45  and  _47
REMARK   20  A    between atoms: _47  and  _48
REMARK   21  A    between atoms: _47  and  _50
REMARK   22  A    between atoms: _50  and  _51
REMARK   23  A    between atoms: _54  and  _56
REMARK   24  A    between atoms: _56  and  _57
REMARK   25  A    between atoms: _59  and  _61
REMARK   26  A    between atoms: _61  and  _62
REMARK   27  A    between atoms: _65  and  _67
REMARK   28  A    between atoms: _67  and  _68
REMARK   29  A    between atoms: _67  and  _70
REMARK   30  A    between atoms: _70  and  _71
REMARK   31  A    between atoms: _74  and  _76
REMARK   32  A    between atoms: _76  and  _77
REMARK   33  A    between atoms: _76  and  _79
REMARK   34  A    between atoms: _79  and  _80
REMARK   35  A    between atoms: _83  and  _85
REMARK   36  A    between atoms: _85  and  _86
REMARK   37  A    between atoms: _85  and  _88
REMARK   38  A    between atoms: _88  and  _89
REMARK   39  A    between atoms: _92  and  _94
REMARK   40  A    between atoms: _94  and  _95
REMARK   41  A    between atoms: _94  and  _97
REMARK   42  A    between atoms: _100  and  _102
REMARK   43  A    between atoms: _102  and  _103
REMARK   44  A    between atoms: _102  and  _105
REMARK   45  A    between atoms: _105  and  _106
REMARK   46  A    between atoms: _106  and  _107
REMARK   47  A    between atoms: _107  and  _108
REMARK   48  A    between atoms: _108  and  _109
REMARK   49  A    between atoms: _113  and  _115
REMARK   50  A    between atoms: _115  and  _116
REMARK   51  A    between atoms: _115  and  _118
REMARK   52  A    between atoms: _118  and  _119
REMARK   53  A    between atoms: _119  and  _120
REMARK   54  A    between atoms: _122  and  _124
REMARK   55  A    between atoms: _124  and  _125
REMARK   56  A    between atoms: _124  and  _127
REMARK   57  A    between atoms: _127  and  _128
REMARK   58  A    between atoms: _131  and  _133
REMARK   59  A    between atoms: _133  and  _134
REMARK   60  A    between atoms: _136  and  _138
REMARK   61  A    between atoms: _138  and  _139
REMARK   62  A    between atoms: _141  and  _143
REMARK   63  A    between atoms: _143  and  _144
REMARK   64  A    between atoms: _143  and  _146
REMARK   65  A    between atoms: _146  and  _147
REMARK   66  A    between atoms: _150  and  _152
REMARK   67  A    between atoms: _152  and  _153
REMARK   68  A    between atoms: _155  and  _157
REMARK   69  A    between atoms: _157  and  _158
REMARK   70  A    between atoms: _160  and  _162
REMARK   71  A    between atoms: _162  and  _163
REMARK   72  A    between atoms: _162  and  _165
REMARK   73  A    between atoms: _165  and  _166
REMARK   74  A    between atoms: _172  and  _174
REMARK   75  A    between atoms: _174  and  _175
REMARK   76  A    between atoms: _174  and  _177
REMARK   77  A    between atoms: _177  and  _178
REMARK   78  A    between atoms: _181  and  _183
REMARK   79  A    between atoms: _183  and  _184
REMARK   80  A    between atoms: _183  and  _186
REMARK   81  A    between atoms: _189  and  _191
REMARK   82  A    between atoms: _191  and  _192
REMARK   83  A    between atoms: _191  and  _194
REMARK   84  A    between atoms: _194  and  _195
REMARK   85  A    between atoms: _198  and  _200
REMARK   86  A    between atoms: _200  and  _201
REMARK   87  A    between atoms: _200  and  _203
REMARK   88  A    between atoms: _203  and  _204
REMARK   89  A    between atoms: _208  and  _209
REMARK   90  A    between atoms: _214  and  _216
REMARK   91  A    between atoms: _216  and  _217
REMARK   92  A    between atoms: _216  and  _219
REMARK   93  A    between atoms: _222  and  _224
REMARK   94  A    between atoms: _224  and  _225
REMARK   95  A    between atoms: _224  and  _227
REMARK   96  A    between atoms: _227  and  _228
REMARK   97  A    between atoms: _233  and  _235
REMARK   98  A    between atoms: _235  and  _236
REMARK   99  A    between atoms: _235  and  _238
REMARK  100  A    between atoms: _238  and  _239
REMARK  101  A    between atoms: _242  and  _244
REMARK  102  A    between atoms: _244  and  _245
REMARK  103  A    between atoms: _244  and  _247
REMARK  104  A    between atoms: _247  and  _248
REMARK  105  A    between atoms: _251  and  _253
REMARK  106  A    between atoms: _253  and  _254
REMARK  107  A    between atoms: _256  and  _258
REMARK  108  A    between atoms: _258  and  _259
REMARK  109  A    between atoms: _258  and  _261
REMARK  110  A    between atoms: _261  and  _262
REMARK  111  A    between atoms: _262  and  _263
REMARK  112  A    between atoms: _263  and  _264
REMARK  113  A    between atoms: _273  and  _275
REMARK  114  A    between atoms: _275  and  _276
REMARK  115  A    between atoms: _275  and  _278
REMARK  116  A    between atoms: _278  and  _279
REMARK  117  A    between atoms: _279  and  _280
REMARK  118  A    between atoms: _280  and  _281
REMARK  119  A    between atoms: _290  and  _292
REMARK  120  A    between atoms: _292  and  _293
REMARK  121  A    between atoms: _292  and  _295
REMARK  122  A    between atoms: _295  and  _296
REMARK  123  A    between atoms: _299  and  _301
REMARK  124  A    between atoms: _301  and  _302
REMARK  125  A    between atoms: _301  and  _304
REMARK  126  A    between atoms: _304  and  _305
REMARK  127  A    between atoms: _308  and  _310
REMARK  128  A    between atoms: _310  and  _311
REMARK  129  A    between atoms: _310  and  _313
REMARK  130  A    between atoms: _313  and  _314
REMARK  131  A    between atoms: _317  and  _319
REMARK  132  A    between atoms: _319  and  _320
REMARK  133  A    between atoms: _319  and  _322
REMARK  134  A    between atoms: _322  and  _323
REMARK  135  A    between atoms: _326  and  _328
REMARK  136  A    between atoms: _328  and  _329
REMARK  137  A    between atoms: _328  and  _331
REMARK  138  A    between atoms: _331  and  _332
REMARK  139  A    between atoms: _335  and  _337
REMARK  140  A    between atoms: _337  and  _338
REMARK  141  A    between atoms: _340  and  _342
REMARK  142  A    between atoms: _342  and  _343
REMARK  143  A    between atoms: _346  and  _348
REMARK  144  A    between atoms: _348  and  _349
REMARK  145  A    between atoms: _348  and  _351
REMARK  146  A    between atoms: _351  and  _352
REMARK  147  A    between atoms: _355  and  _357
REMARK  148  A    between atoms: _357  and  _358
REMARK  149  A    between atoms: _357  and  _360
REMARK  150  A    between atoms: _360  and  _361
REMARK  151  A    between atoms: _364  and  _366
REMARK  152  A    between atoms: _366  and  _367
REMARK  153  A    between atoms: _366  and  _369
REMARK  154  A    between atoms: _369  and  _370
REMARK  155  A    between atoms: _373  and  _375
REMARK  156  A    between atoms: _375  and  _376
REMARK  157  A    between atoms: _375  and  _378
REMARK  158  A    between atoms: _381  and  _383
REMARK  159  A    between atoms: _383  and  _384
REMARK  160  A    between atoms: _383  and  _386
REMARK  161  A    between atoms: _386  and  _387
REMARK  162  A    between atoms: _387  and  _388
REMARK  163  A    between atoms: _388  and  _389
REMARK  164  A    between atoms: _389  and  _390
REMARK  165  A    between atoms: _394  and  _396
REMARK  166  A    between atoms: _396  and  _397
REMARK  167  A    between atoms: _396  and  _399
REMARK  168  A    between atoms: _399  and  _400
REMARK  169  A    between atoms: _400  and  _401
REMARK  170  A    between atoms: _403  and  _405
REMARK  171  A    between atoms: _405  and  _406
REMARK  172  A    between atoms: _405  and  _408
REMARK  173  A    between atoms: _408  and  _409
REMARK  174  A    between atoms: _412  and  _414
REMARK  175  A    between atoms: _414  and  _415
REMARK  176  A    between atoms: _417  and  _419
REMARK  177  A    between atoms: _419  and  _420
REMARK  178  A    between atoms: _422  and  _424
REMARK  179  A    between atoms: _424  and  _425
REMARK  180  A    between atoms: _424  and  _427
REMARK  181  A    between atoms: _427  and  _428
REMARK  182  A    between atoms: _431  and  _433
REMARK  183  A    between atoms: _433  and  _434
REMARK  184  A    between atoms: _436  and  _438
REMARK  185  A    between atoms: _438  and  _439
REMARK  186  A    between atoms: _441  and  _443
REMARK  187  A    between atoms: _443  and  _444
REMARK  188  A    between atoms: _443  and  _446
REMARK  189  A    between atoms: _446  and  _447
REMARK  190  A    between atoms: _453  and  _455
REMARK  191  A    between atoms: _455  and  _456
REMARK  192  A    between atoms: _455  and  _458
REMARK  193  A    between atoms: _458  and  _459
REMARK  194  A    between atoms: _462  and  _464
REMARK  195  A    between atoms: _464  and  _465
REMARK  196  A    between atoms: _464  and  _467
REMARK  197  A    between atoms: _470  and  _472
REMARK  198  A    between atoms: _472  and  _473
REMARK  199  A    between atoms: _472  and  _475
REMARK  200  A    between atoms: _475  and  _476
REMARK  201  A    between atoms: _480  and  _481
REMARK  202  A    between atoms: _486  and  _488
REMARK  203  A    between atoms: _488  and  _489
REMARK  204  A    between atoms: _488  and  _491
REMARK  205  A    between atoms: _491  and  _492
REMARK  206  A    between atoms: _496  and  _497
REMARK  207  A    between atoms: _502  and  _504
REMARK  208  A    between atoms: _504  and  _505
REMARK  209  A    between atoms: _504  and  _507
REMARK  210  A    between atoms: _510  and  _512
REMARK  211  A    between atoms: _512  and  _513
REMARK  212  A    between atoms: _512  and  _515
REMARK  213  A    between atoms: _515  and  _516
REMARK  214  A    between atoms: _521  and  _523
REMARK  215  A    between atoms: _523  and  _524
REMARK  216  A    between atoms: _523  and  _526
REMARK  217  A    between atoms: _526  and  _527
REMARK  218  A    between atoms: _530  and  _532
REMARK  219  A    between atoms: _532  and  _533
REMARK  220  A    between atoms: _532  and  _535
REMARK  221  A    between atoms: _535  and  _536
REMARK  222  A    between atoms: _539  and  _541
REMARK  223  A    between atoms: _541  and  _542
REMARK  224  A    between atoms: _544  and  _546
REMARK  225  A    between atoms: _546  and  _547
REMARK  226  A    between atoms: _546  and  _549
REMARK  227  A    between atoms: _549  and  _550
REMARK  228  A    between atoms: _550  and  _551
REMARK  229  A    between atoms: _551  and  _552
REMARK                            x       y       z     vdW  Elec       q    Type
REMARK                         _______ _______ _______ _____ _____    ______ ____
ROOT
ATOM      1  O   HOH     1       9.359  28.960   1.885  0.00  0.00    +0.000 OA
ENDROOT
TORSDOF 0
REMARK  Name = ../refined-set-2016/1ec2/1ec2_pocket.pdb
REMARK  229 active torsions:
REMARK  status: ('A' for Active; 'I' for Inactive)
REMARK    1  A    between atoms: _1  and  _3
REMARK    2  A    between atoms: _3  and  _4
REMARK    3  A    between atoms: _3  and  _6
REMARK    4  A    between atoms: _6  and  _7
REMARK    5  A    between atoms: _7  and  _8
REMARK    6  A    between atoms: _8  and  _9
REMARK    7  A    between atoms: _18  and  _20
REMARK    8  A    between atoms: _20  and  _21
REMARK    9  A    between atoms: _20  and  _23
REMARK   10  A    between atoms: _23  and  _24
REMARK   11  A    between atoms: _27  and  _29
REMARK   12  A    between atoms: _29  and  _30
REMARK   13  A    between atoms: _29  and  _32
REMARK   14  A    between atoms: _32  and  _33
REMARK   15  A    between atoms: _36  and  _38
REMARK   16  A    between atoms: _38  and  _39
REMARK   17  A    between atoms: _38  and  _41
REMARK   18  A    between atoms: _41  and  _42
REMARK   19  A    between atoms: _45  and  _47
REMARK   20  A    between atoms: _47  and  _48
REMARK   21  A    between atoms: _47  and  _50
REMARK   22  A    between atoms: _50  and  _51
REMARK   23  A    between atoms: _54  and  _56
REMARK   24  A    between atoms: _56  and  _57
REMARK   25  A    between atoms: _59  and  _61
REMARK   26  A    between atoms: _61  and  _62
REMARK   27  A    between atoms: _65  and  _67
REMARK   28  A    between atoms: _67  and  _68
REMARK   29  A    between atoms: _67  and  _70
REMARK   30  A    between atoms: _70  and  _71
REMARK   31  A    between atoms: _74  and  _76
REMARK   32  A    between atoms: _76  and  _77
REMARK   33  A    between atoms: _76  and  _79
REMARK   34  A    between atoms: _79  and  _80
REMARK   35  A    between atoms: _83  and  _85
REMARK   36  A    between atoms: _85  and  _86
REMARK   37  A    between atoms: _85  and  _88
REMARK   38  A    between atoms: _88  and  _89
REMARK   39  A    between atoms: _92  and  _94
REMARK   40  A    between atoms: _94  and  _95
REMARK   41  A    between atoms: _94  and  _97
REMARK   42  A    between atoms: _100  and  _102
REMARK   43  A    between atoms: _102  and  _103
REMARK   44  A    between atoms: _102  and  _105
REMARK   45  A    between atoms: _105  and  _106
REMARK   46  A    between atoms: _106  and  _107
REMARK   47  A    between atoms: _107  and  _108
REMARK   48  A    between atoms: _108  and  _109
REMARK   49  A    between atoms: _113  and  _115
REMARK   50  A    between atoms: _115  and  _116
REMARK   51  A    between atoms: _115  and  _118
REMARK   52  A    between atoms: _118  and  _119
REMARK   53  A    between atoms: _119  and  _120
REMARK   54  A    between atoms: _122  and  _124
REMARK   55  A    between atoms: _124  and  _125
REMARK   56  A    between atoms: _124  and  _127
REMARK   57  A    between atoms: _127  and  _128
REMARK   58  A    between atoms: _131  and  _133
REMARK   59  A    between atoms: _133  and  _134
REMARK   60  A    between atoms: _136  and  _138
REMARK   61  A    between atoms: _138  and  _139
REMARK   62  A    between atoms: _141  and  _143
REMARK   63  A    between atoms: _143  and  _144
REMARK   64  A    between atoms: _143  and  _146
REMARK   65  A    between atoms: _146  and  _147
REMARK   66  A    between atoms: _150  and  _152
REMARK   67  A    between atoms: _152  and  _153
REMARK   68  A    between atoms: _155  and  _157
REMARK   69  A    between atoms: _157  and  _158
REMARK   70  A    between atoms: _160  and  _162
REMARK   71  A    between atoms: _162  and  _163
REMARK   72  A    between atoms: _162  and  _165
REMARK   73  A    between atoms: _165  and  _166
REMARK   74  A    between atoms: _172  and  _174
REMARK   75  A    between atoms: _174  and  _175
REMARK   76  A    between atoms: _174  and  _177
REMARK   77  A    between atoms: _177  and  _178
REMARK   78  A    between atoms: _181  and  _183
REMARK   79  A    between atoms: _183  and  _184
REMARK   80  A    between atoms: _183  and  _186
REMARK   81  A    between atoms: _189  and  _191
REMARK   82  A    between atoms: _191  and  _192
REMARK   83  A    between atoms: _191  and  _194
REMARK   84  A    between atoms: _194  and  _195
REMARK   85  A    between atoms: _198  and  _200
REMARK   86  A    between atoms: _200  and  _201
REMARK   87  A    between atoms: _200  and  _203
REMARK   88  A    between atoms: _203  and  _204
REMARK   89  A    between atoms: _208  and  _209
REMARK   90  A    between atoms: _214  and  _216
REMARK   91  A    between atoms: _216  and  _217
REMARK   92  A    between atoms: _216  and  _219
REMARK   93  A    between atoms: _222  and  _224
REMARK   94  A    between atoms: _224  and  _225
REMARK   95  A    between atoms: _224  and  _227
REMARK   96  A    between atoms: _227  and  _228
REMARK   97  A    between atoms: _233  and  _235
REMARK   98  A    between atoms: _235  and  _236
REMARK   99  A    between atoms: _235  and  _238
REMARK  100  A    between atoms: _238  and  _239
REMARK  101  A    between atoms: _242  and  _244
REMARK  102  A    between atoms: _244  and  _245
REMARK  103  A    between atoms: _244  and  _247
REMARK  104  A    between atoms: _247  and  _248
REMARK  105  A    between atoms: _251  and  _253
REMARK  106  A    between atoms: _253  and  _254
REMARK  107  A    between atoms: _256  and  _258
REMARK  108  A    between atoms: _258  and  _259
REMARK  109  A    between atoms: _258  and  _261
REMARK  110  A    between atoms: _261  and  _262
REMARK  111  A    between atoms: _262  and  _263
REMARK  112  A    between atoms: _263  and  _264
REMARK  113  A    between atoms: _273  and  _275
REMARK  114  A    between atoms: _275  and  _276
REMARK  115  A    between atoms: _275  and  _278
REMARK  116  A    between atoms: _278  and  _279
REMARK  117  A    between atoms: _279  and  _280
REMARK  118  A    between atoms: _280  and  _281
REMARK  119  A    between atoms: _290  and  _292
REMARK  120  A    between atoms: _292  and  _293
REMARK  121  A    between atoms: _292  and  _295
REMARK  122  A    between atoms: _295  and  _296
REMARK  123  A    between atoms: _299  and  _301
REMARK  124  A    between atoms: _301  and  _302
REMARK  125  A    between atoms: _301  and  _304
REMARK  126  A    between atoms: _304  and  _305
REMARK  127  A    between atoms: _308  and  _310
REMARK  128  A    between atoms: _310  and  _311
REMARK  129  A    between atoms: _310  and  _313
REMARK  130  A    between atoms: _313  and  _314
REMARK  131  A    between atoms: _317  and  _319
REMARK  132  A    between atoms: _319  and  _320
REMARK  133  A    between atoms: _319  and  _322
REMARK  134  A    between atoms: _322  and  _323
REMARK  135  A    between atoms: _326  and  _328
REMARK  136  A    between atoms: _328  and  _329
REMARK  137  A    between atoms: _328  and  _331
REMARK  138  A    between atoms: _331  and  _332
REMARK  139  A    between atoms: _335  and  _337
REMARK  140  A    between atoms: _337  and  _338
REMARK  141  A    between atoms: _340  and  _342
REMARK  142  A    between atoms: _342  and  _343
REMARK  143  A    between atoms: _346  and  _348
REMARK  144  A    between atoms: _348  and  _349
REMARK  145  A    between atoms: _348  and  _351
REMARK  146  A    between atoms: _351  and  _352
REMARK  147  A    between atoms: _355  and  _357
REMARK  148  A    between atoms: _357  and  _358
REMARK  149  A    between atoms: _357  and  _360
REMARK  150  A    between atoms: _360  and  _361
REMARK  151  A    between atoms: _364  and  _366
REMARK  152  A    between atoms: _366  and  _367
REMARK  153  A    between atoms: _366  and  _369
REMARK  154  A    between atoms: _369  and  _370
REMARK  155  A    between atoms: _373  and  _375
REMARK  156  A    between atoms: _375  and  _376
REMARK  157  A    between atoms: _375  and  _378
REMARK  158  A    between atoms: _381  and  _383
REMARK  159  A    between atoms: _383  and  _384
REMARK  160  A    between atoms: _383  and  _386
REMARK  161  A    between atoms: _386  and  _387
REMARK  162  A    between atoms: _387  and  _388
REMARK  163  A    between atoms: _388  and  _389
REMARK  164  A    between atoms: _389  and  _390
REMARK  165  A    between atoms: _394  and  _396
REMARK  166  A    between atoms: _396  and  _397
REMARK  167  A    between atoms: _396  and  _399
REMARK  168  A    between atoms: _399  and  _400
REMARK  169  A    between atoms: _400  and  _401
REMARK  170  A    between atoms: _403  and  _405
REMARK  171  A    between atoms: _405  and  _406
REMARK  172  A    between atoms: _405  and  _408
REMARK  173  A    between atoms: _408  and  _409
REMARK  174  A    between atoms: _412  and  _414
REMARK  175  A    between atoms: _414  and  _415
REMARK  176  A    between atoms: _417  and  _419
REMARK  177  A    between atoms: _419  and  _420
REMARK  178  A    between atoms: _422  and  _424
REMARK  179  A    between atoms: _424  and  _425
REMARK  180  A    between atoms: _424  and  _427
REMARK  181  A    between atoms: _427  and  _428
REMARK  182  A    between atoms: _431  and  _433
REMARK  183  A    between atoms: _433  and  _434
REMARK  184  A    between atoms: _436  and  _438
REMARK  185  A    between atoms: _438  and  _439
REMARK  186  A    between atoms: _441  and  _443
REMARK  187  A    between atoms: _443  and  _444
REMARK  188  A    between atoms: _443  and  _446
REMARK  189  A    between atoms: _446  and  _447
REMARK  190  A    between atoms: _453  and  _455
REMARK  191  A    between atoms: _455  and  _456
REMARK  192  A    between atoms: _455  and  _458
REMARK  193  A    between atoms: _458  and  _459
REMARK  194  A    between atoms: _462  and  _464
REMARK  195  A    between atoms: _464  and  _465
REMARK  196  A    between atoms: _464  and  _467
REMARK  197  A    between atoms: _470  and  _472
REMARK  198  A    between atoms: _472  and  _473
REMARK  199  A    between atoms: _472  and  _475
REMARK  200  A    between atoms: _475  and  _476
REMARK  201  A    between atoms: _480  and  _481
REMARK  202  A    between atoms: _486  and  _488
REMARK  203  A    between atoms: _488  and  _489
REMARK  204  A    between atoms: _488  and  _491
REMARK  205  A    between atoms: _491  and  _492
REMARK  206  A    between atoms: _496  and  _497
REMARK  207  A    between atoms: _502  and  _504
REMARK  208  A    between atoms: _504  and  _505
REMARK  209  A    between atoms: _504  and  _507
REMARK  210  A    between atoms: _510  and  _512
REMARK  211  A    between atoms: _512  and  _513
REMARK  212  A    between atoms: _512  and  _515
REMARK  213  A    between atoms: _515  and  _516
REMARK  214  A    between atoms: _521  and  _523
REMARK  215  A    between atoms: _523  and  _524
REMARK  216  A    between atoms: _523  and  _526
REMARK  217  A    between atoms: _526  and  _527
REMARK  218  A    between atoms: _530  and  _532
REMARK  219  A    between atoms: _532  and  _533
REMARK  220  A    between atoms: _532  and  _535
REMARK  221  A    between atoms: _535  and  _536
REMARK  222  A    between atoms: _539  and  _541
REMARK  223  A    between atoms: _541  and  _542
REMARK  224  A    between atoms: _544  and  _546
REMARK  225  A    between atoms: _546  and  _547
REMARK  226  A    between atoms: _546  and  _549
REMARK  227  A    between atoms: _549  and  _550
REMARK  228  A    between atoms: _550  and  _551
REMARK  229  A    between atoms: _551  and  _552
REMARK                            x       y       z     vdW  Elec       q    Type
REMARK                         _______ _______ _______ _____ _____    ______ ____
ROOT
ATOM      1  O   HOH     1       3.689  26.421   7.412  0.00  0.00    +0.000 OA
ENDROOT
TORSDOF 0
REMARK  Name = ../refined-set-2016/1ec2/1ec2_pocket.pdb
REMARK  229 active torsions:
REMARK  status: ('A' for Active; 'I' for Inactive)
REMARK    1  A    between atoms: _1  and  _3
REMARK    2  A    between atoms: _3  and  _4
REMARK    3  A    between atoms: _3  and  _6
REMARK    4  A    between atoms: _6  and  _7
REMARK    5  A    between atoms: _7  and  _8
REMARK    6  A    between atoms: _8  and  _9
REMARK    7  A    between atoms: _18  and  _20
REMARK    8  A    between atoms: _20  and  _21
REMARK    9  A    between atoms: _20  and  _23
REMARK   10  A    between atoms: _23  and  _24
REMARK   11  A    between atoms: _27  and  _29
REMARK   12  A    between atoms: _29  and  _30
REMARK   13  A    between atoms: _29  and  _32
REMARK   14  A    between atoms: _32  and  _33
REMARK   15  A    between atoms: _36  and  _38
REMARK   16  A    between atoms: _38  and  _39
REMARK   17  A    between atoms: _38  and  _41
REMARK   18  A    between atoms: _41  and  _42
REMARK   19  A    between atoms: _45  and  _47
REMARK   20  A    between atoms: _47  and  _48
REMARK   21  A    between atoms: _47  and  _50
REMARK   22  A    between atoms: _50  and  _51
REMARK   23  A    between atoms: _54  and  _56
REMARK   24  A    between atoms: _56  and  _57
REMARK   25  A    between atoms: _59  and  _61
REMARK   26  A    between atoms: _61  and  _62
REMARK   27  A    between atoms: _65  and  _67
REMARK   28  A    between atoms: _67  and  _68
REMARK   29  A    between atoms: _67  and  _70
REMARK   30  A    between atoms: _70  and  _71
REMARK   31  A    between atoms: _74  and  _76
REMARK   32  A    between atoms: _76  and  _77
REMARK   33  A    between atoms: _76  and  _79
REMARK   34  A    between atoms: _79  and  _80
REMARK   35  A    between atoms: _83  and  _85
REMARK   36  A    between atoms: _85  and  _86
REMARK   37  A    between atoms: _85  and  _88
REMARK   38  A    between atoms: _88  and  _89
REMARK   39  A    between atoms: _92  and  _94
REMARK   40  A    between atoms: _94  and  _95
REMARK   41  A    between atoms: _94  and  _97
REMARK   42  A    between atoms: _100  and  _102
REMARK   43  A    between atoms: _102  and  _103
REMARK   44  A    between atoms: _102  and  _105
REMARK   45  A    between atoms: _105  and  _106
REMARK   46  A    between atoms: _106  and  _107
REMARK   47  A    between atoms: _107  and  _108
REMARK   48  A    between atoms: _108  and  _109
REMARK   49  A    between atoms: _113  and  _115
REMARK   50  A    between atoms: _115  and  _116
REMARK   51  A    between atoms: _115  and  _118
REMARK   52  A    between atoms: _118  and  _119
REMARK   53  A    between atoms: _119  and  _120
REMARK   54  A    between atoms: _122  and  _124
REMARK   55  A    between atoms: _124  and  _125
REMARK   56  A    between atoms: _124  and  _127
REMARK   57  A    between atoms: _127  and  _128
REMARK   58  A    between atoms: _131  and  _133
REMARK   59  A    between atoms: _133  and  _134
REMARK   60  A    between atoms: _136  and  _138
REMARK   61  A    between atoms: _138  and  _139
REMARK   62  A    between atoms: _141  and  _143
REMARK   63  A    between atoms: _143  and  _144
REMARK   64  A    between atoms: _143  and  _146
REMARK   65  A    between atoms: _146  and  _147
REMARK   66  A    between atoms: _150  and  _152
REMARK   67  A    between atoms: _152  and  _153
REMARK   68  A    between atoms: _155  and  _157
REMARK   69  A    between atoms: _157  and  _158
REMARK   70  A    between atoms: _160  and  _162
REMARK   71  A    between atoms: _162  and  _163
REMARK   72  A    between atoms: _162  and  _165
REMARK   73  A    between atoms: _165  and  _166
REMARK   74  A    between atoms: _172  and  _174
REMARK   75  A    between atoms: _174  and  _175
REMARK   76  A    between atoms: _174  and  _177
REMARK   77  A    between atoms: _177  and  _178
REMARK   78  A    between atoms: _181  and  _183
REMARK   79  A    between atoms: _183  and  _184
REMARK   80  A    between atoms: _183  and  _186
REMARK   81  A    between atoms: _189  and  _191
REMARK   82  A    between atoms: _191  and  _192
REMARK   83  A    between atoms: _191  and  _194
REMARK   84  A    between atoms: _194  and  _195
REMARK   85  A    between atoms: _198  and  _200
REMARK   86  A    between atoms: _200  and  _201
REMARK   87  A    between atoms: _200  and  _203
REMARK   88  A    between atoms: _203  and  _204
REMARK   89  A    between atoms: _208  and  _209
REMARK   90  A    between atoms: _214  and  _216
REMARK   91  A    between atoms: _216  and  _217
REMARK   92  A    between atoms: _216  and  _219
REMARK   93  A    between atoms: _222  and  _224
REMARK   94  A    between atoms: _224  and  _225
REMARK   95  A    between atoms: _224  and  _227
REMARK   96  A    between atoms: _227  and  _228
REMARK   97  A    between atoms: _233  and  _235
REMARK   98  A    between atoms: _235  and  _236
REMARK   99  A    between atoms: _235  and  _238
REMARK  100  A    between atoms: _238  and  _239
REMARK  101  A    between atoms: _242  and  _244
REMARK  102  A    between atoms: _244  and  _245
REMARK  103  A    between atoms: _244  and  _247
REMARK  104  A    between atoms: _247  and  _248
REMARK  105  A    between atoms: _251  and  _253
REMARK  106  A    between atoms: _253  and  _254
REMARK  107  A    between atoms: _256  and  _258
REMARK  108  A    between atoms: _258  and  _259
REMARK  109  A    between atoms: _258  and  _261
REMARK  110  A    between atoms: _261  and  _262
REMARK  111  A    between atoms: _262  and  _263
REMARK  112  A    between atoms: _263  and  _264
REMARK  113  A    between atoms: _273  and  _275
REMARK  114  A    between atoms: _275  and  _276
REMARK  115  A    between atoms: _275  and  _278
REMARK  116  A    between atoms: _278  and  _279
REMARK  117  A    between atoms: _279  and  _280
REMARK  118  A    between atoms: _280  and  _281
REMARK  119  A    between atoms: _290  and  _292
REMARK  120  A    between atoms: _292  and  _293
REMARK  121  A    between atoms: _292  and  _295
REMARK  122  A    between atoms: _295  and  _296
REMARK  123  A    between atoms: _299  and  _301
REMARK  124  A    between atoms: _301  and  _302
REMARK  125  A    between atoms: _301  and  _304
REMARK  126  A    between atoms: _304  and  _305
REMARK  127  A    between atoms: _308  and  _310
REMARK  128  A    between atoms: _310  and  _311
REMARK  129  A    between atoms: _310  and  _313
REMARK  130  A    between atoms: _313  and  _314
REMARK  131  A    between atoms: _317  and  _319
REMARK  132  A    between atoms: _319  and  _320
REMARK  133  A    between atoms: _319  and  _322
REMARK  134  A    between atoms: _322  and  _323
REMARK  135  A    between atoms: _326  and  _328
REMARK  136  A    between atoms: _328  and  _329
REMARK  137  A    between atoms: _328  and  _331
REMARK  138  A    between atoms: _331  and  _332
REMARK  139  A    between atoms: _335  and  _337
REMARK  140  A    between atoms: _337  and  _338
REMARK  141  A    between atoms: _340  and  _342
REMARK  142  A    between atoms: _342  and  _343
REMARK  143  A    between atoms: _346  and  _348
REMARK  144  A    between atoms: _348  and  _349
REMARK  145  A    between atoms: _348  and  _351
REMARK  146  A    between atoms: _351  and  _352
REMARK  147  A    between atoms: _355  and  _357
REMARK  148  A    between atoms: _357  and  _358
REMARK  149  A    between atoms: _357  and  _360
REMARK  150  A    between atoms: _360  and  _361
REMARK  151  A    between atoms: _364  and  _366
REMARK  152  A    between atoms: _366  and  _367
REMARK  153  A    between atoms: _366  and  _369
REMARK  154  A    between atoms: _369  and  _370
REMARK  155  A    between atoms: _373  and  _375
REMARK  156  A    between atoms: _375  and  _376
REMARK  157  A    between atoms: _375  and  _378
REMARK  158  A    between atoms: _381  and  _383
REMARK  159  A    between atoms: _383  and  _384
REMARK  160  A    between atoms: _383  and  _386
REMARK  161  A    between atoms: _386  and  _387
REMARK  162  A    between atoms: _387  and  _388
REMARK  163  A    between atoms: _388  and  _389
REMARK  164  A    between atoms: _389  and  _390
REMARK  165  A    between atoms: _394  and  _396
REMARK  166  A    between atoms: _396  and  _397
REMARK  167  A    between atoms: _396  and  _399
REMARK  168  A    between atoms: _399  and  _400
REMARK  169  A    between atoms: _400  and  _401
REMARK  170  A    between atoms: _403  and  _405
REMARK  171  A    between atoms: _405  and  _406
REMARK  172  A    between atoms: _405  and  _408
REMARK  173  A    between atoms: _408  and  _409
REMARK  174  A    between atoms: _412  and  _414
REMARK  175  A    between atoms: _414  and  _415
REMARK  176  A    between atoms: _417  and  _419
REMARK  177  A    between atoms: _419  and  _420
REMARK  178  A    between atoms: _422  and  _424
REMARK  179  A    between atoms: _424  and  _425
REMARK  180  A    between atoms: _424  and  _427
REMARK  181  A    between atoms: _427  and  _428
REMARK  182  A    between atoms: _431  and  _433
REMARK  183  A    between atoms: _433  and  _434
REMARK  184  A    between atoms: _436  and  _438
REMARK  185  A    between atoms: _438  and  _439
REMARK  186  A    between atoms: _441  and  _443
REMARK  187  A    between atoms: _443  and  _444
REMARK  188  A    between atoms: _443  and  _446
REMARK  189  A    between atoms: _446  and  _447
REMARK  190  A    between atoms: _453  and  _455
REMARK  191  A    between atoms: _455  and  _456
REMARK  192  A    between atoms: _455  and  _458
REMARK  193  A    between atoms: _458  and  _459
REMARK  194  A    between atoms: _462  and  _464
REMARK  195  A    between atoms: _464  and  _465
REMARK  196  A    between atoms: _464  and  _467
REMARK  197  A    between atoms: _470  and  _472
REMARK  198  A    between atoms: _472  and  _473
REMARK  199  A    between atoms: _472  and  _475
REMARK  200  A    between atoms: _475  and  _476
REMARK  201  A    between atoms: _480  and  _481
REMARK  202  A    between atoms: _486  and  _488
REMARK  203  A    between atoms: _488  and  _489
REMARK  204  A    between atoms: _488  and  _491
REMARK  205  A    between atoms: _491  and  _492
REMARK  206  A    between atoms: _496  and  _497
REMARK  207  A    between atoms: _502  and  _504
REMARK  208  A    between atoms: _504  and  _505
REMARK  209  A    between atoms: _504  and  _507
REMARK  210  A    between atoms: _510  and  _512
REMARK  211  A    between atoms: _512  and  _513
REMARK  212  A    between atoms: _512  and  _515
REMARK  213  A    between atoms: _515  and  _516
REMARK  214  A    between atoms: _521  and  _523
REMARK  215  A    between atoms: _523  and  _524
REMARK  216  A    between atoms: _523  and  _526
REMARK  217  A    between atoms: _526  and  _527
REMARK  218  A    between atoms: _530  and  _532
REMARK  219  A    between atoms: _532  and  _533
REMARK  220  A    between atoms: _532  and  _535
REMARK  221  A    between atoms: _535  and  _536
REMARK  222  A    between atoms: _539  and  _541
REMARK  223  A    between atoms: _541  and  _542
REMARK  224  A    between atoms: _544  and  _546
REMARK  225  A    between atoms: _546  and  _547
REMARK  226  A    between atoms: _546  and  _549
REMARK  227  A    between atoms: _549  and  _550
REMARK  228  A    between atoms: _550  and  _551
REMARK  229  A    between atoms: _551  and  _552
REMARK                            x       y       z     vdW  Elec       q    Type
REMARK                         _______ _______ _______ _____ _____    ______ ____
ROOT
ATOM      1  O   HOH     1       8.749  33.798  12.296  0.00  0.00    +0.000 OA
ENDROOT
TORSDOF 0
REMARK  Name = ../refined-set-2016/1ec2/1ec2_pocket.pdb
REMARK  229 active torsions:
REMARK  status: ('A' for Active; 'I' for Inactive)
REMARK    1  A    between atoms: _1  and  _3
REMARK    2  A    between atoms: _3  and  _4
REMARK    3  A    between atoms: _3  and  _6
REMARK    4  A    between atoms: _6  and  _7
REMARK    5  A    between atoms: _7  and  _8
REMARK    6  A    between atoms: _8  and  _9
REMARK    7  A    between atoms: _18  and  _20
REMARK    8  A    between atoms: _20  and  _21
REMARK    9  A    between atoms: _20  and  _23
REMARK   10  A    between atoms: _23  and  _24
REMARK   11  A    between atoms: _27  and  _29
REMARK   12  A    between atoms: _29  and  _30
REMARK   13  A    between atoms: _29  and  _32
REMARK   14  A    between atoms: _32  and  _33
REMARK   15  A    between atoms: _36  and  _38
REMARK   16  A    between atoms: _38  and  _39
REMARK   17  A    between atoms: _38  and  _41
REMARK   18  A    between atoms: _41  and  _42
REMARK   19  A    between atoms: _45  and  _47
REMARK   20  A    between atoms: _47  and  _48
REMARK   21  A    between atoms: _47  and  _50
REMARK   22  A    between atoms: _50  and  _51
REMARK   23  A    between atoms: _54  and  _56
REMARK   24  A    between atoms: _56  and  _57
REMARK   25  A    between atoms: _59  and  _61
REMARK   26  A    between atoms: _61  and  _62
REMARK   27  A    between atoms: _65  and  _67
REMARK   28  A    between atoms: _67  and  _68
REMARK   29  A    between atoms: _67  and  _70
REMARK   30  A    between atoms: _70  and  _71
REMARK   31  A    between atoms: _74  and  _76
REMARK   32  A    between atoms: _76  and  _77
REMARK   33  A    between atoms: _76  and  _79
REMARK   34  A    between atoms: _79  and  _80
REMARK   35  A    between atoms: _83  and  _85
REMARK   36  A    between atoms: _85  and  _86
REMARK   37  A    between atoms: _85  and  _88
REMARK   38  A    between atoms: _88  and  _89
REMARK   39  A    between atoms: _92  and  _94
REMARK   40  A    between atoms: _94  and  _95
REMARK   41  A    between atoms: _94  and  _97
REMARK   42  A    between atoms: _100  and  _102
REMARK   43  A    between atoms: _102  and  _103
REMARK   44  A    between atoms: _102  and  _105
REMARK   45  A    between atoms: _105  and  _106
REMARK   46  A    between atoms: _106  and  _107
REMARK   47  A    between atoms: _107  and  _108
REMARK   48  A    between atoms: _108  and  _109
REMARK   49  A    between atoms: _113  and  _115
REMARK   50  A    between atoms: _115  and  _116
REMARK   51  A    between atoms: _115  and  _118
REMARK   52  A    between atoms: _118  and  _119
REMARK   53  A    between atoms: _119  and  _120
REMARK   54  A    between atoms: _122  and  _124
REMARK   55  A    between atoms: _124  and  _125
REMARK   56  A    between atoms: _124  and  _127
REMARK   57  A    between atoms: _127  and  _128
REMARK   58  A    between atoms: _131  and  _133
REMARK   59  A    between atoms: _133  and  _134
REMARK   60  A    between atoms: _136  and  _138
REMARK   61  A    between atoms: _138  and  _139
REMARK   62  A    between atoms: _141  and  _143
REMARK   63  A    between atoms: _143  and  _144
REMARK   64  A    between atoms: _143  and  _146
REMARK   65  A    between atoms: _146  and  _147
REMARK   66  A    between atoms: _150  and  _152
REMARK   67  A    between atoms: _152  and  _153
REMARK   68  A    between atoms: _155  and  _157
REMARK   69  A    between atoms: _157  and  _158
REMARK   70  A    between atoms: _160  and  _162
REMARK   71  A    between atoms: _162  and  _163
REMARK   72  A    between atoms: _162  and  _165
REMARK   73  A    between atoms: _165  and  _166
REMARK   74  A    between atoms: _172  and  _174
REMARK   75  A    between atoms: _174  and  _175
REMARK   76  A    between atoms: _174  and  _177
REMARK   77  A    between atoms: _177  and  _178
REMARK   78  A    between atoms: _181  and  _183
REMARK   79  A    between atoms: _183  and  _184
REMARK   80  A    between atoms: _183  and  _186
REMARK   81  A    between atoms: _189  and  _191
REMARK   82  A    between atoms: _191  and  _192
REMARK   83  A    between atoms: _191  and  _194
REMARK   84  A    between atoms: _194  and  _195
REMARK   85  A    between atoms: _198  and  _200
REMARK   86  A    between atoms: _200  and  _201
REMARK   87  A    between atoms: _200  and  _203
REMARK   88  A    between atoms: _203  and  _204
REMARK   89  A    between atoms: _208  and  _209
REMARK   90  A    between atoms: _214  and  _216
REMARK   91  A    between atoms: _216  and  _217
REMARK   92  A    between atoms: _216  and  _219
REMARK   93  A    between atoms: _222  and  _224
REMARK   94  A    between atoms: _224  and  _225
REMARK   95  A    between atoms: _224  and  _227
REMARK   96  A    between atoms: _227  and  _228
REMARK   97  A    between atoms: _233  and  _235
REMARK   98  A    between atoms: _235  and  _236
REMARK   99  A    between atoms: _235  and  _238
REMARK  100  A    between atoms: _238  and  _239
REMARK  101  A    between atoms: _242  and  _244
REMARK  102  A    between atoms: _244  and  _245
REMARK  103  A    between atoms: _244  and  _247
REMARK  104  A    between atoms: _247  and  _248
REMARK  105  A    between atoms: _251  and  _253
REMARK  106  A    between atoms: _253  and  _254
REMARK  107  A    between atoms: _256  and  _258
REMARK  108  A    between atoms: _258  and  _259
REMARK  109  A    between atoms: _258  and  _261
REMARK  110  A    between atoms: _261  and  _262
REMARK  111  A    between atoms: _262  and  _263
REMARK  112  A    between atoms: _263  and  _264
REMARK  113  A    between atoms: _273  and  _275
REMARK  114  A    between atoms: _275  and  _276
REMARK  115  A    between atoms: _275  and  _278
REMARK  116  A    between atoms: _278  and  _279
REMARK  117  A    between atoms: _279  and  _280
REMARK  118  A    between atoms: _280  and  _281
REMARK  119  A    between atoms: _290  and  _292
REMARK  120  A    between atoms: _292  and  _293
REMARK  121  A    between atoms: _292  and  _295
REMARK  122  A    between atoms: _295  and  _296
REMARK  123  A    between atoms: _299  and  _301
REMARK  124  A    between atoms: _301  and  _302
REMARK  125  A    between atoms: _301  and  _304
REMARK  126  A    between atoms: _304  and  _305
REMARK  127  A    between atoms: _308  and  _310
REMARK  128  A    between atoms: _310  and  _311
REMARK  129  A    between atoms: _310  and  _313
REMARK  130  A    between atoms: _313  and  _314
REMARK  131  A    between atoms: _317  and  _319
REMARK  132  A    between atoms: _319  and  _320
REMARK  133  A    between atoms: _319  and  _322
REMARK  134  A    between atoms: _322  and  _323
REMARK  135  A    between atoms: _326  and  _328
REMARK  136  A    between atoms: _328  and  _329
REMARK  137  A    between atoms: _328  and  _331
REMARK  138  A    between atoms: _331  and  _332
REMARK  139  A    between atoms: _335  and  _337
REMARK  140  A    between atoms: _337  and  _338
REMARK  141  A    between atoms: _340  and  _342
REMARK  142  A    between atoms: _342  and  _343
REMARK  143  A    between atoms: _346  and  _348
REMARK  144  A    between atoms: _348  and  _349
REMARK  145  A    between atoms: _348  and  _351
REMARK  146  A    between atoms: _351  and  _352
REMARK  147  A    between atoms: _355  and  _357
REMARK  148  A    between atoms: _357  and  _358
REMARK  149  A    between atoms: _357  and  _360
REMARK  150  A    between atoms: _360  and  _361
REMARK  151  A    between atoms: _364  and  _366
REMARK  152  A    between atoms: _366  and  _367
REMARK  153  A    between atoms: _366  and  _369
REMARK  154  A    between atoms: _369  and  _370
REMARK  155  A    between atoms: _373  and  _375
REMARK  156  A    between atoms: _375  and  _376
REMARK  157  A    between atoms: _375  and  _378
REMARK  158  A    between atoms: _381  and  _383
REMARK  159  A    between atoms: _383  and  _384
REMARK  160  A    between atoms: _383  and  _386
REMARK  161  A    between atoms: _386  and  _387
REMARK  162  A    between atoms: _387  and  _388
REMARK  163  A    between atoms: _388  and  _389
REMARK  164  A    between atoms: _389  and  _390
REMARK  165  A    between atoms: _394  and  _396
REMARK  166  A    between atoms: _396  and  _397
REMARK  167  A    between atoms: _396  and  _399
REMARK  168  A    between atoms: _399  and  _400
REMARK  169  A    between atoms: _400  and  _401
REMARK  170  A    between atoms: _403  and  _405
REMARK  171  A    between atoms: _405  and  _406
REMARK  172  A    between atoms: _405  and  _408
REMARK  173  A    between atoms: _408  and  _409
REMARK  174  A    between atoms: _412  and  _414
REMARK  175  A    between atoms: _414  and  _415
REMARK  176  A    between atoms: _417  and  _419
REMARK  177  A    between atoms: _419  and  _420
REMARK  178  A    between atoms: _422  and  _424
REMARK  179  A    between atoms: _424  and  _425
REMARK  180  A    between atoms: _424  and  _427
REMARK  181  A    between atoms: _427  and  _428
REMARK  182  A    between atoms: _431  and  _433
REMARK  183  A    between atoms: _433  and  _434
REMARK  184  A    between atoms: _436  and  _438
REMARK  185  A    between atoms: _438  and  _439
REMARK  186  A    between atoms: _441  and  _443
REMARK  187  A    between atoms: _443  and  _444
REMARK  188  A    between atoms: _443  and  _446
REMARK  189  A    between atoms: _446  and  _447
REMARK  190  A    between atoms: _453  and  _455
REMARK  191  A    between atoms: _455  and  _456
REMARK  192  A    between atoms: _455  and  _458
REMARK  193  A    between atoms: _458  and  _459
REMARK  194  A    between atoms: _462  and  _464
REMARK  195  A    between atoms: _464  and  _465
REMARK  196  A    between atoms: _464  and  _467
REMARK  197  A    between atoms: _470  and  _472
REMARK  198  A    between atoms: _472  and  _473
REMARK  199  A    between atoms: _472  and  _475
REMARK  200  A    between atoms: _475  and  _476
REMARK  201  A    between atoms: _480  and  _481
REMARK  202  A    between atoms: _486  and  _488
REMARK  203  A    between atoms: _488  and  _489
REMARK  204  A    between atoms: _488  and  _491
REMARK  205  A    between atoms: _491  and  _492
REMARK  206  A    between atoms: _496  and  _497
REMARK  207  A    between atoms: _502  and  _504
REMARK  208  A    between atoms: _504  and  _505
REMARK  209  A    between atoms: _504  and  _507
REMARK  210  A    between atoms: _510  and  _512
REMARK  211  A    between atoms: _512  and  _513
REMARK  212  A    between atoms: _512  and  _515
REMARK  213  A    between atoms: _515  and  _516
REMARK  214  A    between atoms: _521  and  _523
REMARK  215  A    between atoms: _523  and  _524
REMARK  216  A    between atoms: _523  and  _526
REMARK  217  A    between atoms: _526  and  _527
REMARK  218  A    between atoms: _530  and  _532
REMARK  219  A    between atoms: _532  and  _533
REMARK  220  A    between atoms: _532  and  _535
REMARK  221  A    between atoms: _535  and  _536
REMARK  222  A    between atoms: _539  and  _541
REMARK  223  A    between atoms: _541  and  _542
REMARK  224  A    between atoms: _544  and  _546
REMARK  225  A    between atoms: _546  and  _547
REMARK  226  A    between atoms: _546  and  _549
REMARK  227  A    between atoms: _549  and  _550
REMARK  228  A    between atoms: _550  and  _551
REMARK  229  A    between atoms: _551  and  _552
REMARK                            x       y       z     vdW  Elec       q    Type
REMARK                         _______ _______ _______ _____ _____    ______ ____
ROOT
ATOM      1  O   HOH     1       4.145  30.637   5.756  0.00  0.00    +0.000 OA
ENDROOT
TORSDOF 0
REMARK  Name = ../refined-set-2016/1ec2/1ec2_pocket.pdb
REMARK  229 active torsions:
REMARK  status: ('A' for Active; 'I' for Inactive)
REMARK    1  A    between atoms: _1  and  _3
REMARK    2  A    between atoms: _3  and  _4
REMARK    3  A    between atoms: _3  and  _6
REMARK    4  A    between atoms: _6  and  _7
REMARK    5  A    between atoms: _7  and  _8
REMARK    6  A    between atoms: _8  and  _9
REMARK    7  A    between atoms: _18  and  _20
REMARK    8  A    between atoms: _20  and  _21
REMARK    9  A    between atoms: _20  and  _23
REMARK   10  A    between atoms: _23  and  _24
REMARK   11  A    between atoms: _27  and  _29
REMARK   12  A    between atoms: _29  and  _30
REMARK   13  A    between atoms: _29  and  _32
REMARK   14  A    between atoms: _32  and  _33
REMARK   15  A    between atoms: _36  and  _38
REMARK   16  A    between atoms: _38  and  _39
REMARK   17  A    between atoms: _38  and  _41
REMARK   18  A    between atoms: _41  and  _42
REMARK   19  A    between atoms: _45  and  _47
REMARK   20  A    between atoms: _47  and  _48
REMARK   21  A    between atoms: _47  and  _50
REMARK   22  A    between atoms: _50  and  _51
REMARK   23  A    between atoms: _54  and  _56
REMARK   24  A    between atoms: _56  and  _57
REMARK   25  A    between atoms: _59  and  _61
REMARK   26  A    between atoms: _61  and  _62
REMARK   27  A    between atoms: _65  and  _67
REMARK   28  A    between atoms: _67  and  _68
REMARK   29  A    between atoms: _67  and  _70
REMARK   30  A    between atoms: _70  and  _71
REMARK   31  A    between atoms: _74  and  _76
REMARK   32  A    between atoms: _76  and  _77
REMARK   33  A    between atoms: _76  and  _79
REMARK   34  A    between atoms: _79  and  _80
REMARK   35  A    between atoms: _83  and  _85
REMARK   36  A    between atoms: _85  and  _86
REMARK   37  A    between atoms: _85  and  _88
REMARK   38  A    between atoms: _88  and  _89
REMARK   39  A    between atoms: _92  and  _94
REMARK   40  A    between atoms: _94  and  _95
REMARK   41  A    between atoms: _94  and  _97
REMARK   42  A    between atoms: _100  and  _102
REMARK   43  A    between atoms: _102  and  _103
REMARK   44  A    between atoms: _102  and  _105
REMARK   45  A    between atoms: _105  and  _106
REMARK   46  A    between atoms: _106  and  _107
REMARK   47  A    between atoms: _107  and  _108
REMARK   48  A    between atoms: _108  and  _109
REMARK   49  A    between atoms: _113  and  _115
REMARK   50  A    between atoms: _115  and  _116
REMARK   51  A    between atoms: _115  and  _118
REMARK   52  A    between atoms: _118  and  _119
REMARK   53  A    between atoms: _119  and  _120
REMARK   54  A    between atoms: _122  and  _124
REMARK   55  A    between atoms: _124  and  _125
REMARK   56  A    between atoms: _124  and  _127
REMARK   57  A    between atoms: _127  and  _128
REMARK   58  A    between atoms: _131  and  _133
REMARK   59  A    between atoms: _133  and  _134
REMARK   60  A    between atoms: _136  and  _138
REMARK   61  A    between atoms: _138  and  _139
REMARK   62  A    between atoms: _141  and  _143
REMARK   63  A    between atoms: _143  and  _144
REMARK   64  A    between atoms: _143  and  _146
REMARK   65  A    between atoms: _146  and  _147
REMARK   66  A    between atoms: _150  and  _152
REMARK   67  A    between atoms: _152  and  _153
REMARK   68  A    between atoms: _155  and  _157
REMARK   69  A    between atoms: _157  and  _158
REMARK   70  A    between atoms: _160  and  _162
REMARK   71  A    between atoms: _162  and  _163
REMARK   72  A    between atoms: _162  and  _165
REMARK   73  A    between atoms: _165  and  _166
REMARK   74  A    between atoms: _172  and  _174
REMARK   75  A    between atoms: _174  and  _175
REMARK   76  A    between atoms: _174  and  _177
REMARK   77  A    between atoms: _177  and  _178
REMARK   78  A    between atoms: _181  and  _183
REMARK   79  A    between atoms: _183  and  _184
REMARK   80  A    between atoms: _183  and  _186
REMARK   81  A    between atoms: _189  and  _191
REMARK   82  A    between atoms: _191  and  _192
REMARK   83  A    between atoms: _191  and  _194
REMARK   84  A    between atoms: _194  and  _195
REMARK   85  A    between atoms: _198  and  _200
REMARK   86  A    between atoms: _200  and  _201
REMARK   87  A    between atoms: _200  and  _203
REMARK   88  A    between atoms: _203  and  _204
REMARK   89  A    between atoms: _208  and  _209
REMARK   90  A    between atoms: _214  and  _216
REMARK   91  A    between atoms: _216  and  _217
REMARK   92  A    between atoms: _216  and  _219
REMARK   93  A    between atoms: _222  and  _224
REMARK   94  A    between atoms: _224  and  _225
REMARK   95  A    between atoms: _224  and  _227
REMARK   96  A    between atoms: _227  and  _228
REMARK   97  A    between atoms: _233  and  _235
REMARK   98  A    between atoms: _235  and  _236
REMARK   99  A    between atoms: _235  and  _238
REMARK  100  A    between atoms: _238  and  _239
REMARK  101  A    between atoms: _242  and  _244
REMARK  102  A    between atoms: _244  and  _245
REMARK  103  A    between atoms: _244  and  _247
REMARK  104  A    between atoms: _247  and  _248
REMARK  105  A    between atoms: _251  and  _253
REMARK  106  A    between atoms: _253  and  _254
REMARK  107  A    between atoms: _256  and  _258
REMARK  108  A    between atoms: _258  and  _259
REMARK  109  A    between atoms: _258  and  _261
REMARK  110  A    between atoms: _261  and  _262
REMARK  111  A    between atoms: _262  and  _263
REMARK  112  A    between atoms: _263  and  _264
REMARK  113  A    between atoms: _273  and  _275
REMARK  114  A    between atoms: _275  and  _276
REMARK  115  A    between atoms: _275  and  _278
REMARK  116  A    between atoms: _278  and  _279
REMARK  117  A    between atoms: _279  and  _280
REMARK  118  A    between atoms: _280  and  _281
REMARK  119  A    between atoms: _290  and  _292
REMARK  120  A    between atoms: _292  and  _293
REMARK  121  A    between atoms: _292  and  _295
REMARK  122  A    between atoms: _295  and  _296
REMARK  123  A    between atoms: _299  and  _301
REMARK  124  A    between atoms: _301  and  _302
REMARK  125  A    between atoms: _301  and  _304
REMARK  126  A    between atoms: _304  and  _305
REMARK  127  A    between atoms: _308  and  _310
REMARK  128  A    between atoms: _310  and  _311
REMARK  129  A    between atoms: _310  and  _313
REMARK  130  A    between atoms: _313  and  _314
REMARK  131  A    between atoms: _317  and  _319
REMARK  132  A    between atoms: _319  and  _320
REMARK  133  A    between atoms: _319  and  _322
REMARK  134  A    between atoms: _322  and  _323
REMARK  135  A    between atoms: _326  and  _328
REMARK  136  A    between atoms: _328  and  _329
REMARK  137  A    between atoms: _328  and  _331
REMARK  138  A    between atoms: _331  and  _332
REMARK  139  A    between atoms: _335  and  _337
REMARK  140  A    between atoms: _337  and  _338
REMARK  141  A    between atoms: _340  and  _342
REMARK  142  A    between atoms: _342  and  _343
REMARK  143  A    between atoms: _346  and  _348
REMARK  144  A    between atoms: _348  and  _349
REMARK  145  A    between atoms: _348  and  _351
REMARK  146  A    between atoms: _351  and  _352
REMARK  147  A    between atoms: _355  and  _357
REMARK  148  A    between atoms: _357  and  _358
REMARK  149  A    between atoms: _357  and  _360
REMARK  150  A    between atoms: _360  and  _361
REMARK  151  A    between atoms: _364  and  _366
REMARK  152  A    between atoms: _366  and  _367
REMARK  153  A    between atoms: _366  and  _369
REMARK  154  A    between atoms: _369  and  _370
REMARK  155  A    between atoms: _373  and  _375
REMARK  156  A    between atoms: _375  and  _376
REMARK  157  A    between atoms: _375  and  _378
REMARK  158  A    between atoms: _381  and  _383
REMARK  159  A    between atoms: _383  and  _384
REMARK  160  A    between atoms: _383  and  _386
REMARK  161  A    between atoms: _386  and  _387
REMARK  162  A    between atoms: _387  and  _388
REMARK  163  A    between atoms: _388  and  _389
REMARK  164  A    between atoms: _389  and  _390
REMARK  165  A    between atoms: _394  and  _396
REMARK  166  A    between atoms: _396  and  _397
REMARK  167  A    between atoms: _396  and  _399
REMARK  168  A    between atoms: _399  and  _400
REMARK  169  A    between atoms: _400  and  _401
REMARK  170  A    between atoms: _403  and  _405
REMARK  171  A    between atoms: _405  and  _406
REMARK  172  A    between atoms: _405  and  _408
REMARK  173  A    between atoms: _408  and  _409
REMARK  174  A    between atoms: _412  and  _414
REMARK  175  A    between atoms: _414  and  _415
REMARK  176  A    between atoms: _417  and  _419
REMARK  177  A    between atoms: _419  and  _420
REMARK  178  A    between atoms: _422  and  _424
REMARK  179  A    between atoms: _424  and  _425
REMARK  180  A    between atoms: _424  and  _427
REMARK  181  A    between atoms: _427  and  _428
REMARK  182  A    between atoms: _431  and  _433
REMARK  183  A    between atoms: _433  and  _434
REMARK  184  A    between atoms: _436  and  _438
REMARK  185  A    between atoms: _438  and  _439
REMARK  186  A    between atoms: _441  and  _443
REMARK  187  A    between atoms: _443  and  _444
REMARK  188  A    between atoms: _443  and  _446
REMARK  189  A    between atoms: _446  and  _447
REMARK  190  A    between atoms: _453  and  _455
REMARK  191  A    between atoms: _455  and  _456
REMARK  192  A    between atoms: _455  and  _458
REMARK  193  A    between atoms: _458  and  _459
REMARK  194  A    between atoms: _462  and  _464
REMARK  195  A    between atoms: _464  and  _465
REMARK  196  A    between atoms: _464  and  _467
REMARK  197  A    between atoms: _470  and  _472
REMARK  198  A    between atoms: _472  and  _473
REMARK  199  A    between atoms: _472  and  _475
REMARK  200  A    between atoms: _475  and  _476
REMARK  201  A    between atoms: _480  and  _481
REMARK  202  A    between atoms: _486  and  _488
REMARK  203  A    between atoms: _488  and  _489
REMARK  204  A    between atoms: _488  and  _491
REMARK  205  A    between atoms: _491  and  _492
REMARK  206  A    between atoms: _496  and  _497
REMARK  207  A    between atoms: _502  and  _504
REMARK  208  A    between atoms: _504  and  _505
REMARK  209  A    between atoms: _504  and  _507
REMARK  210  A    between atoms: _510  and  _512
REMARK  211  A    between atoms: _512  and  _513
REMARK  212  A    between atoms: _512  and  _515
REMARK  213  A    between atoms: _515  and  _516
REMARK  214  A    between atoms: _521  and  _523
REMARK  215  A    between atoms: _523  and  _524
REMARK  216  A    between atoms: _523  and  _526
REMARK  217  A    between atoms: _526  and  _527
REMARK  218  A    between atoms: _530  and  _532
REMARK  219  A    between atoms: _532  and  _533
REMARK  220  A    between atoms: _532  and  _535
REMARK  221  A    between atoms: _535  and  _536
REMARK  222  A    between atoms: _539  and  _541
REMARK  223  A    between atoms: _541  and  _542
REMARK  224  A    between atoms: _544  and  _546
REMARK  225  A    between atoms: _546  and  _547
REMARK  226  A    between atoms: _546  and  _549
REMARK  227  A    between atoms: _549  and  _550
REMARK  228  A    between atoms: _550  and  _551
REMARK  229  A    between atoms: _551  and  _552
REMARK                            x       y       z     vdW  Elec       q    Type
REMARK                         _______ _______ _______ _____ _____    ______ ____
ROOT
ATOM      1  O   HOH     1       7.448  16.339   3.542  0.00  0.00    +0.000 OA
ENDROOT
TORSDOF 0
REMARK  Name = ../refined-set-2016/1ec2/1ec2_pocket.pdb
REMARK  229 active torsions:
REMARK  status: ('A' for Active; 'I' for Inactive)
REMARK    1  A    between atoms: _1  and  _3
REMARK    2  A    between atoms: _3  and  _4
REMARK    3  A    between atoms: _3  and  _6
REMARK    4  A    between atoms: _6  and  _7
REMARK    5  A    between atoms: _7  and  _8
REMARK    6  A    between atoms: _8  and  _9
REMARK    7  A    between atoms: _18  and  _20
REMARK    8  A    between atoms: _20  and  _21
REMARK    9  A    between atoms: _20  and  _23
REMARK   10  A    between atoms: _23  and  _24
REMARK   11  A    between atoms: _27  and  _29
REMARK   12  A    between atoms: _29  and  _30
REMARK   13  A    between atoms: _29  and  _32
REMARK   14  A    between atoms: _32  and  _33
REMARK   15  A    between atoms: _36  and  _38
REMARK   16  A    between atoms: _38  and  _39
REMARK   17  A    between atoms: _38  and  _41
REMARK   18  A    between atoms: _41  and  _42
REMARK   19  A    between atoms: _45  and  _47
REMARK   20  A    between atoms: _47  and  _48
REMARK   21  A    between atoms: _47  and  _50
REMARK   22  A    between atoms: _50  and  _51
REMARK   23  A    between atoms: _54  and  _56
REMARK   24  A    between atoms: _56  and  _57
REMARK   25  A    between atoms: _59  and  _61
REMARK   26  A    between atoms: _61  and  _62
REMARK   27  A    between atoms: _65  and  _67
REMARK   28  A    between atoms: _67  and  _68
REMARK   29  A    between atoms: _67  and  _70
REMARK   30  A    between atoms: _70  and  _71
REMARK   31  A    between atoms: _74  and  _76
REMARK   32  A    between atoms: _76  and  _77
REMARK   33  A    between atoms: _76  and  _79
REMARK   34  A    between atoms: _79  and  _80
REMARK   35  A    between atoms: _83  and  _85
REMARK   36  A    between atoms: _85  and  _86
REMARK   37  A    between atoms: _85  and  _88
REMARK   38  A    between atoms: _88  and  _89
REMARK   39  A    between atoms: _92  and  _94
REMARK   40  A    between atoms: _94  and  _95
REMARK   41  A    between atoms: _94  and  _97
REMARK   42  A    between atoms: _100  and  _102
REMARK   43  A    between atoms: _102  and  _103
REMARK   44  A    between atoms: _102  and  _105
REMARK   45  A    between atoms: _105  and  _106
REMARK   46  A    between atoms: _106  and  _107
REMARK   47  A    between atoms: _107  and  _108
REMARK   48  A    between atoms: _108  and  _109
REMARK   49  A    between atoms: _113  and  _115
REMARK   50  A    between atoms: _115  and  _116
REMARK   51  A    between atoms: _115  and  _118
REMARK   52  A    between atoms: _118  and  _119
REMARK   53  A    between atoms: _119  and  _120
REMARK   54  A    between atoms: _122  and  _124
REMARK   55  A    between atoms: _124  and  _125
REMARK   56  A    between atoms: _124  and  _127
REMARK   57  A    between atoms: _127  and  _128
REMARK   58  A    between atoms: _131  and  _133
REMARK   59  A    between atoms: _133  and  _134
REMARK   60  A    between atoms: _136  and  _138
REMARK   61  A    between atoms: _138  and  _139
REMARK   62  A    between atoms: _141  and  _143
REMARK   63  A    between atoms: _143  and  _144
REMARK   64  A    between atoms: _143  and  _146
REMARK   65  A    between atoms: _146  and  _147
REMARK   66  A    between atoms: _150  and  _152
REMARK   67  A    between atoms: _152  and  _153
REMARK   68  A    between atoms: _155  and  _157
REMARK   69  A    between atoms: _157  and  _158
REMARK   70  A    between atoms: _160  and  _162
REMARK   71  A    between atoms: _162  and  _163
REMARK   72  A    between atoms: _162  and  _165
REMARK   73  A    between atoms: _165  and  _166
REMARK   74  A    between atoms: _172  and  _174
REMARK   75  A    between atoms: _174  and  _175
REMARK   76  A    between atoms: _174  and  _177
REMARK   77  A    between atoms: _177  and  _178
REMARK   78  A    between atoms: _181  and  _183
REMARK   79  A    between atoms: _183  and  _184
REMARK   80  A    between atoms: _183  and  _186
REMARK   81  A    between atoms: _189  and  _191
REMARK   82  A    between atoms: _191  and  _192
REMARK   83  A    between atoms: _191  and  _194
REMARK   84  A    between atoms: _194  and  _195
REMARK   85  A    between atoms: _198  and  _200
REMARK   86  A    between atoms: _200  and  _201
REMARK   87  A    between atoms: _200  and  _203
REMARK   88  A    between atoms: _203  and  _204
REMARK   89  A    between atoms: _208  and  _209
REMARK   90  A    between atoms: _214  and  _216
REMARK   91  A    between atoms: _216  and  _217
REMARK   92  A    between atoms: _216  and  _219
REMARK   93  A    between atoms: _222  and  _224
REMARK   94  A    between atoms: _224  and  _225
REMARK   95  A    between atoms: _224  and  _227
REMARK   96  A    between atoms: _227  and  _228
REMARK   97  A    between atoms: _233  and  _235
REMARK   98  A    between atoms: _235  and  _236
REMARK   99  A    between atoms: _235  and  _238
REMARK  100  A    between atoms: _238  and  _239
REMARK  101  A    between atoms: _242  and  _244
REMARK  102  A    between atoms: _244  and  _245
REMARK  103  A    between atoms: _244  and  _247
REMARK  104  A    between atoms: _247  and  _248
REMARK  105  A    between atoms: _251  and  _253
REMARK  106  A    between atoms: _253  and  _254
REMARK  107  A    between atoms: _256  and  _258
REMARK  108  A    between atoms: _258  and  _259
REMARK  109  A    between atoms: _258  and  _261
REMARK  110  A    between atoms: _261  and  _262
REMARK  111  A    between atoms: _262  and  _263
REMARK  112  A    between atoms: _263  and  _264
REMARK  113  A    between atoms: _273  and  _275
REMARK  114  A    between atoms: _275  and  _276
REMARK  115  A    between atoms: _275  and  _278
REMARK  116  A    between atoms: _278  and  _279
REMARK  117  A    between atoms: _279  and  _280
REMARK  118  A    between atoms: _280  and  _281
REMARK  119  A    between atoms: _290  and  _292
REMARK  120  A    between atoms: _292  and  _293
REMARK  121  A    between atoms: _292  and  _295
REMARK  122  A    between atoms: _295  and  _296
REMARK  123  A    between atoms: _299  and  _301
REMARK  124  A    between atoms: _301  and  _302
REMARK  125  A    between atoms: _301  and  _304
REMARK  126  A    between atoms: _304  and  _305
REMARK  127  A    between atoms: _308  and  _310
REMARK  128  A    between atoms: _310  and  _311
REMARK  129  A    between atoms: _310  and  _313
REMARK  130  A    between atoms: _313  and  _314
REMARK  131  A    between atoms: _317  and  _319
REMARK  132  A    between atoms: _319  and  _320
REMARK  133  A    between atoms: _319  and  _322
REMARK  134  A    between atoms: _322  and  _323
REMARK  135  A    between atoms: _326  and  _328
REMARK  136  A    between atoms: _328  and  _329
REMARK  137  A    between atoms: _328  and  _331
REMARK  138  A    between atoms: _331  and  _332
REMARK  139  A    between atoms: _335  and  _337
REMARK  140  A    between atoms: _337  and  _338
REMARK  141  A    between atoms: _340  and  _342
REMARK  142  A    between atoms: _342  and  _343
REMARK  143  A    between atoms: _346  and  _348
REMARK  144  A    between atoms: _348  and  _349
REMARK  145  A    between atoms: _348  and  _351
REMARK  146  A    between atoms: _351  and  _352
REMARK  147  A    between atoms: _355  and  _357
REMARK  148  A    between atoms: _357  and  _358
REMARK  149  A    between atoms: _357  and  _360
REMARK  150  A    between atoms: _360  and  _361
REMARK  151  A    between atoms: _364  and  _366
REMARK  152  A    between atoms: _366  and  _367
REMARK  153  A    between atoms: _366  and  _369
REMARK  154  A    between atoms: _369  and  _370
REMARK  155  A    between atoms: _373  and  _375
REMARK  156  A    between atoms: _375  and  _376
REMARK  157  A    between atoms: _375  and  _378
REMARK  158  A    between atoms: _381  and  _383
REMARK  159  A    between atoms: _383  and  _384
REMARK  160  A    between atoms: _383  and  _386
REMARK  161  A    between atoms: _386  and  _387
REMARK  162  A    between atoms: _387  and  _388
REMARK  163  A    between atoms: _388  and  _389
REMARK  164  A    between atoms: _389  and  _390
REMARK  165  A    between atoms: _394  and  _396
REMARK  166  A    between atoms: _396  and  _397
REMARK  167  A    between atoms: _396  and  _399
REMARK  168  A    between atoms: _399  and  _400
REMARK  169  A    between atoms: _400  and  _401
REMARK  170  A    between atoms: _403  and  _405
REMARK  171  A    between atoms: _405  and  _406
REMARK  172  A    between atoms: _405  and  _408
REMARK  173  A    between atoms: _408  and  _409
REMARK  174  A    between atoms: _412  and  _414
REMARK  175  A    between atoms: _414  and  _415
REMARK  176  A    between atoms: _417  and  _419
REMARK  177  A    between atoms: _419  and  _420
REMARK  178  A    between atoms: _422  and  _424
REMARK  179  A    between atoms: _424  and  _425
REMARK  180  A    between atoms: _424  and  _427
REMARK  181  A    between atoms: _427  and  _428
REMARK  182  A    between atoms: _431  and  _433
REMARK  183  A    between atoms: _433  and  _434
REMARK  184  A    between atoms: _436  and  _438
REMARK  185  A    between atoms: _438  and  _439
REMARK  186  A    between atoms: _441  and  _443
REMARK  187  A    between atoms: _443  and  _444
REMARK  188  A    between atoms: _443  and  _446
REMARK  189  A    between atoms: _446  and  _447
REMARK  190  A    between atoms: _453  and  _455
REMARK  191  A    between atoms: _455  and  _456
REMARK  192  A    between atoms: _455  and  _458
REMARK  193  A    between atoms: _458  and  _459
REMARK  194  A    between atoms: _462  and  _464
REMARK  195  A    between atoms: _464  and  _465
REMARK  196  A    between atoms: _464  and  _467
REMARK  197  A    between atoms: _470  and  _472
REMARK  198  A    between atoms: _472  and  _473
REMARK  199  A    between atoms: _472  and  _475
REMARK  200  A    between atoms: _475  and  _476
REMARK  201  A    between atoms: _480  and  _481
REMARK  202  A    between atoms: _486  and  _488
REMARK  203  A    between atoms: _488  and  _489
REMARK  204  A    between atoms: _488  and  _491
REMARK  205  A    between atoms: _491  and  _492
REMARK  206  A    between atoms: _496  and  _497
REMARK  207  A    between atoms: _502  and  _504
REMARK  208  A    between atoms: _504  and  _505
REMARK  209  A    between atoms: _504  and  _507
REMARK  210  A    between atoms: _510  and  _512
REMARK  211  A    between atoms: _512  and  _513
REMARK  212  A    between atoms: _512  and  _515
REMARK  213  A    between atoms: _515  and  _516
REMARK  214  A    between atoms: _521  and  _523
REMARK  215  A    between atoms: _523  and  _524
REMARK  216  A    between atoms: _523  and  _526
REMARK  217  A    between atoms: _526  and  _527
REMARK  218  A    between atoms: _530  and  _532
REMARK  219  A    between atoms: _532  and  _533
REMARK  220  A    between atoms: _532  and  _535
REMARK  221  A    between atoms: _535  and  _536
REMARK  222  A    between atoms: _539  and  _541
REMARK  223  A    between atoms: _541  and  _542
REMARK  224  A    between atoms: _544  and  _546
REMARK  225  A    between atoms: _546  and  _547
REMARK  226  A    between atoms: _546  and  _549
REMARK  227  A    between atoms: _549  and  _550
REMARK  228  A    between atoms: _550  and  _551
REMARK  229  A    between atoms: _551  and  _552
REMARK                            x       y       z     vdW  Elec       q    Type
REMARK                         _______ _______ _______ _____ _____    ______ ____
ROOT
ATOM      1  O   HOH     1       8.467  35.764   5.357  0.00  0.00    +0.000 OA
ENDROOT
TORSDOF 0
REMARK  Name = ../refined-set-2016/1ec2/1ec2_pocket.pdb
REMARK  229 active torsions:
REMARK  status: ('A' for Active; 'I' for Inactive)
REMARK    1  A    between atoms: _1  and  _3
REMARK    2  A    between atoms: _3  and  _4
REMARK    3  A    between atoms: _3  and  _6
REMARK    4  A    between atoms: _6  and  _7
REMARK    5  A    between atoms: _7  and  _8
REMARK    6  A    between atoms: _8  and  _9
REMARK    7  A    between atoms: _18  and  _20
REMARK    8  A    between atoms: _20  and  _21
REMARK    9  A    between atoms: _20  and  _23
REMARK   10  A    between atoms: _23  and  _24
REMARK   11  A    between atoms: _27  and  _29
REMARK   12  A    between atoms: _29  and  _30
REMARK   13  A    between atoms: _29  and  _32
REMARK   14  A    between atoms: _32  and  _33
REMARK   15  A    between atoms: _36  and  _38
REMARK   16  A    between atoms: _38  and  _39
REMARK   17  A    between atoms: _38  and  _41
REMARK   18  A    between atoms: _41  and  _42
REMARK   19  A    between atoms: _45  and  _47
REMARK   20  A    between atoms: _47  and  _48
REMARK   21  A    between atoms: _47  and  _50
REMARK   22  A    between atoms: _50  and  _51
REMARK   23  A    between atoms: _54  and  _56
REMARK   24  A    between atoms: _56  and  _57
REMARK   25  A    between atoms: _59  and  _61
REMARK   26  A    between atoms: _61  and  _62
REMARK   27  A    between atoms: _65  and  _67
REMARK   28  A    between atoms: _67  and  _68
REMARK   29  A    between atoms: _67  and  _70
REMARK   30  A    between atoms: _70  and  _71
REMARK   31  A    between atoms: _74  and  _76
REMARK   32  A    between atoms: _76  and  _77
REMARK   33  A    between atoms: _76  and  _79
REMARK   34  A    between atoms: _79  and  _80
REMARK   35  A    between atoms: _83  and  _85
REMARK   36  A    between atoms: _85  and  _86
REMARK   37  A    between atoms: _85  and  _88
REMARK   38  A    between atoms: _88  and  _89
REMARK   39  A    between atoms: _92  and  _94
REMARK   40  A    between atoms: _94  and  _95
REMARK   41  A    between atoms: _94  and  _97
REMARK   42  A    between atoms: _100  and  _102
REMARK   43  A    between atoms: _102  and  _103
REMARK   44  A    between atoms: _102  and  _105
REMARK   45  A    between atoms: _105  and  _106
REMARK   46  A    between atoms: _106  and  _107
REMARK   47  A    between atoms: _107  and  _108
REMARK   48  A    between atoms: _108  and  _109
REMARK   49  A    between atoms: _113  and  _115
REMARK   50  A    between atoms: _115  and  _116
REMARK   51  A    between atoms: _115  and  _118
REMARK   52  A    between atoms: _118  and  _119
REMARK   53  A    between atoms: _119  and  _120
REMARK   54  A    between atoms: _122  and  _124
REMARK   55  A    between atoms: _124  and  _125
REMARK   56  A    between atoms: _124  and  _127
REMARK   57  A    between atoms: _127  and  _128
REMARK   58  A    between atoms: _131  and  _133
REMARK   59  A    between atoms: _133  and  _134
REMARK   60  A    between atoms: _136  and  _138
REMARK   61  A    between atoms: _138  and  _139
REMARK   62  A    between atoms: _141  and  _143
REMARK   63  A    between atoms: _143  and  _144
REMARK   64  A    between atoms: _143  and  _146
REMARK   65  A    between atoms: _146  and  _147
REMARK   66  A    between atoms: _150  and  _152
REMARK   67  A    between atoms: _152  and  _153
REMARK   68  A    between atoms: _155  and  _157
REMARK   69  A    between atoms: _157  and  _158
REMARK   70  A    between atoms: _160  and  _162
REMARK   71  A    between atoms: _162  and  _163
REMARK   72  A    between atoms: _162  and  _165
REMARK   73  A    between atoms: _165  and  _166
REMARK   74  A    between atoms: _172  and  _174
REMARK   75  A    between atoms: _174  and  _175
REMARK   76  A    between atoms: _174  and  _177
REMARK   77  A    between atoms: _177  and  _178
REMARK   78  A    between atoms: _181  and  _183
REMARK   79  A    between atoms: _183  and  _184
REMARK   80  A    between atoms: _183  and  _186
REMARK   81  A    between atoms: _189  and  _191
REMARK   82  A    between atoms: _191  and  _192
REMARK   83  A    between atoms: _191  and  _194
REMARK   84  A    between atoms: _194  and  _195
REMARK   85  A    between atoms: _198  and  _200
REMARK   86  A    between atoms: _200  and  _201
REMARK   87  A    between atoms: _200  and  _203
REMARK   88  A    between atoms: _203  and  _204
REMARK   89  A    between atoms: _208  and  _209
REMARK   90  A    between atoms: _214  and  _216
REMARK   91  A    between atoms: _216  and  _217
REMARK   92  A    between atoms: _216  and  _219
REMARK   93  A    between atoms: _222  and  _224
REMARK   94  A    between atoms: _224  and  _225
REMARK   95  A    between atoms: _224  and  _227
REMARK   96  A    between atoms: _227  and  _228
REMARK   97  A    between atoms: _233  and  _235
REMARK   98  A    between atoms: _235  and  _236
REMARK   99  A    between atoms: _235  and  _238
REMARK  100  A    between atoms: _238  and  _239
REMARK  101  A    between atoms: _242  and  _244
REMARK  102  A    between atoms: _244  and  _245
REMARK  103  A    between atoms: _244  and  _247
REMARK  104  A    between atoms: _247  and  _248
REMARK  105  A    between atoms: _251  and  _253
REMARK  106  A    between atoms: _253  and  _254
REMARK  107  A    between atoms: _256  and  _258
REMARK  108  A    between atoms: _258  and  _259
REMARK  109  A    between atoms: _258  and  _261
REMARK  110  A    between atoms: _261  and  _262
REMARK  111  A    between atoms: _262  and  _263
REMARK  112  A    between atoms: _263  and  _264
REMARK  113  A    between atoms: _273  and  _275
REMARK  114  A    between atoms: _275  and  _276
REMARK  115  A    between atoms: _275  and  _278
REMARK  116  A    between atoms: _278  and  _279
REMARK  117  A    between atoms: _279  and  _280
REMARK  118  A    between atoms: _280  and  _281
REMARK  119  A    between atoms: _290  and  _292
REMARK  120  A    between atoms: _292  and  _293
REMARK  121  A    between atoms: _292  and  _295
REMARK  122  A    between atoms: _295  and  _296
REMARK  123  A    between atoms: _299  and  _301
REMARK  124  A    between atoms: _301  and  _302
REMARK  125  A    between atoms: _301  and  _304
REMARK  126  A    between atoms: _304  and  _305
REMARK  127  A    between atoms: _308  and  _310
REMARK  128  A    between atoms: _310  and  _311
REMARK  129  A    between atoms: _310  and  _313
REMARK  130  A    between atoms: _313  and  _314
REMARK  131  A    between atoms: _317  and  _319
REMARK  132  A    between atoms: _319  and  _320
REMARK  133  A    between atoms: _319  and  _322
REMARK  134  A    between atoms: _322  and  _323
REMARK  135  A    between atoms: _326  and  _328
REMARK  136  A    between atoms: _328  and  _329
REMARK  137  A    between atoms: _328  and  _331
REMARK  138  A    between atoms: _331  and  _332
REMARK  139  A    between atoms: _335  and  _337
REMARK  140  A    between atoms: _337  and  _338
REMARK  141  A    between atoms: _340  and  _342
REMARK  142  A    between atoms: _342  and  _343
REMARK  143  A    between atoms: _346  and  _348
REMARK  144  A    between atoms: _348  and  _349
REMARK  145  A    between atoms: _348  and  _351
REMARK  146  A    between atoms: _351  and  _352
REMARK  147  A    between atoms: _355  and  _357
REMARK  148  A    between atoms: _357  and  _358
REMARK  149  A    between atoms: _357  and  _360
REMARK  150  A    between atoms: _360  and  _361
REMARK  151  A    between atoms: _364  and  _366
REMARK  152  A    between atoms: _366  and  _367
REMARK  153  A    between atoms: _366  and  _369
REMARK  154  A    between atoms: _369  and  _370
REMARK  155  A    between atoms: _373  and  _375
REMARK  156  A    between atoms: _375  and  _376
REMARK  157  A    between atoms: _375  and  _378
REMARK  158  A    between atoms: _381  and  _383
REMARK  159  A    between atoms: _383  and  _384
REMARK  160  A    between atoms: _383  and  _386
REMARK  161  A    between atoms: _386  and  _387
REMARK  162  A    between atoms: _387  and  _388
REMARK  163  A    between atoms: _388  and  _389
REMARK  164  A    between atoms: _389  and  _390
REMARK  165  A    between atoms: _394  and  _396
REMARK  166  A    between atoms: _396  and  _397
REMARK  167  A    between atoms: _396  and  _399
REMARK  168  A    between atoms: _399  and  _400
REMARK  169  A    between atoms: _400  and  _401
REMARK  170  A    between atoms: _403  and  _405
REMARK  171  A    between atoms: _405  and  _406
REMARK  172  A    between atoms: _405  and  _408
REMARK  173  A    between atoms: _408  and  _409
REMARK  174  A    between atoms: _412  and  _414
REMARK  175  A    between atoms: _414  and  _415
REMARK  176  A    between atoms: _417  and  _419
REMARK  177  A    between atoms: _419  and  _420
REMARK  178  A    between atoms: _422  and  _424
REMARK  179  A    between atoms: _424  and  _425
REMARK  180  A    between atoms: _424  and  _427
REMARK  181  A    between atoms: _427  and  _428
REMARK  182  A    between atoms: _431  and  _433
REMARK  183  A    between atoms: _433  and  _434
REMARK  184  A    between atoms: _436  and  _438
REMARK  185  A    between atoms: _438  and  _439
REMARK  186  A    between atoms: _441  and  _443
REMARK  187  A    between atoms: _443  and  _444
REMARK  188  A    between atoms: _443  and  _446
REMARK  189  A    between atoms: _446  and  _447
REMARK  190  A    between atoms: _453  and  _455
REMARK  191  A    between atoms: _455  and  _456
REMARK  192  A    between atoms: _455  and  _458
REMARK  193  A    between atoms: _458  and  _459
REMARK  194  A    between atoms: _462  and  _464
REMARK  195  A    between atoms: _464  and  _465
REMARK  196  A    between atoms: _464  and  _467
REMARK  197  A    between atoms: _470  and  _472
REMARK  198  A    between atoms: _472  and  _473
REMARK  199  A    between atoms: _472  and  _475
REMARK  200  A    between atoms: _475  and  _476
REMARK  201  A    between atoms: _480  and  _481
REMARK  202  A    between atoms: _486  and  _488
REMARK  203  A    between atoms: _488  and  _489
REMARK  204  A    between atoms: _488  and  _491
REMARK  205  A    between atoms: _491  and  _492
REMARK  206  A    between atoms: _496  and  _497
REMARK  207  A    between atoms: _502  and  _504
REMARK  208  A    between atoms: _504  and  _505
REMARK  209  A    between atoms: _504  and  _507
REMARK  210  A    between atoms: _510  and  _512
REMARK  211  A    between atoms: _512  and  _513
REMARK  212  A    between atoms: _512  and  _515
REMARK  213  A    between atoms: _515  and  _516
REMARK  214  A    between atoms: _521  and  _523
REMARK  215  A    between atoms: _523  and  _524
REMARK  216  A    between atoms: _523  and  _526
REMARK  217  A    between atoms: _526  and  _527
REMARK  218  A    between atoms: _530  and  _532
REMARK  219  A    between atoms: _532  and  _533
REMARK  220  A    between atoms: _532  and  _535
REMARK  221  A    between atoms: _535  and  _536
REMARK  222  A    between atoms: _539  and  _541
REMARK  223  A    between atoms: _541  and  _542
REMARK  224  A    between atoms: _544  and  _546
REMARK  225  A    between atoms: _546  and  _547
REMARK  226  A    between atoms: _546  and  _549
REMARK  227  A    between atoms: _549  and  _550
REMARK  228  A    between atoms: _550  and  _551
REMARK  229  A    between atoms: _551  and  _552
REMARK                            x       y       z     vdW  Elec       q    Type
REMARK                         _______ _______ _______ _____ _____    ______ ____
ROOT
ATOM      1  O   HOH     1      24.323  18.763  13.191  0.00  0.00    +0.000 OA
ENDROOT
TORSDOF 0
REMARK  Name = ../refined-set-2016/1ec2/1ec2_pocket.pdb
REMARK  229 active torsions:
REMARK  status: ('A' for Active; 'I' for Inactive)
REMARK    1  A    between atoms: _1  and  _3
REMARK    2  A    between atoms: _3  and  _4
REMARK    3  A    between atoms: _3  and  _6
REMARK    4  A    between atoms: _6  and  _7
REMARK    5  A    between atoms: _7  and  _8
REMARK    6  A    between atoms: _8  and  _9
REMARK    7  A    between atoms: _18  and  _20
REMARK    8  A    between atoms: _20  and  _21
REMARK    9  A    between atoms: _20  and  _23
REMARK   10  A    between atoms: _23  and  _24
REMARK   11  A    between atoms: _27  and  _29
REMARK   12  A    between atoms: _29  and  _30
REMARK   13  A    between atoms: _29  and  _32
REMARK   14  A    between atoms: _32  and  _33
REMARK   15  A    between atoms: _36  and  _38
REMARK   16  A    between atoms: _38  and  _39
REMARK   17  A    between atoms: _38  and  _41
REMARK   18  A    between atoms: _41  and  _42
REMARK   19  A    between atoms: _45  and  _47
REMARK   20  A    between atoms: _47  and  _48
REMARK   21  A    between atoms: _47  and  _50
REMARK   22  A    between atoms: _50  and  _51
REMARK   23  A    between atoms: _54  and  _56
REMARK   24  A    between atoms: _56  and  _57
REMARK   25  A    between atoms: _59  and  _61
REMARK   26  A    between atoms: _61  and  _62
REMARK   27  A    between atoms: _65  and  _67
REMARK   28  A    between atoms: _67  and  _68
REMARK   29  A    between atoms: _67  and  _70
REMARK   30  A    between atoms: _70  and  _71
REMARK   31  A    between atoms: _74  and  _76
REMARK   32  A    between atoms: _76  and  _77
REMARK   33  A    between atoms: _76  and  _79
REMARK   34  A    between atoms: _79  and  _80
REMARK   35  A    between atoms: _83  and  _85
REMARK   36  A    between atoms: _85  and  _86
REMARK   37  A    between atoms: _85  and  _88
REMARK   38  A    between atoms: _88  and  _89
REMARK   39  A    between atoms: _92  and  _94
REMARK   40  A    between atoms: _94  and  _95
REMARK   41  A    between atoms: _94  and  _97
REMARK   42  A    between atoms: _100  and  _102
REMARK   43  A    between atoms: _102  and  _103
REMARK   44  A    between atoms: _102  and  _105
REMARK   45  A    between atoms: _105  and  _106
REMARK   46  A    between atoms: _106  and  _107
REMARK   47  A    between atoms: _107  and  _108
REMARK   48  A    between atoms: _108  and  _109
REMARK   49  A    between atoms: _113  and  _115
REMARK   50  A    between atoms: _115  and  _116
REMARK   51  A    between atoms: _115  and  _118
REMARK   52  A    between atoms: _118  and  _119
REMARK   53  A    between atoms: _119  and  _120
REMARK   54  A    between atoms: _122  and  _124
REMARK   55  A    between atoms: _124  and  _125
REMARK   56  A    between atoms: _124  and  _127
REMARK   57  A    between atoms: _127  and  _128
REMARK   58  A    between atoms: _131  and  _133
REMARK   59  A    between atoms: _133  and  _134
REMARK   60  A    between atoms: _136  and  _138
REMARK   61  A    between atoms: _138  and  _139
REMARK   62  A    between atoms: _141  and  _143
REMARK   63  A    between atoms: _143  and  _144
REMARK   64  A    between atoms: _143  and  _146
REMARK   65  A    between atoms: _146  and  _147
REMARK   66  A    between atoms: _150  and  _152
REMARK   67  A    between atoms: _152  and  _153
REMARK   68  A    between atoms: _155  and  _157
REMARK   69  A    between atoms: _157  and  _158
REMARK   70  A    between atoms: _160  and  _162
REMARK   71  A    between atoms: _162  and  _163
REMARK   72  A    between atoms: _162  and  _165
REMARK   73  A    between atoms: _165  and  _166
REMARK   74  A    between atoms: _172  and  _174
REMARK   75  A    between atoms: _174  and  _175
REMARK   76  A    between atoms: _174  and  _177
REMARK   77  A    between atoms: _177  and  _178
REMARK   78  A    between atoms: _181  and  _183
REMARK   79  A    between atoms: _183  and  _184
REMARK   80  A    between atoms: _183  and  _186
REMARK   81  A    between atoms: _189  and  _191
REMARK   82  A    between atoms: _191  and  _192
REMARK   83  A    between atoms: _191  and  _194
REMARK   84  A    between atoms: _194  and  _195
REMARK   85  A    between atoms: _198  and  _200
REMARK   86  A    between atoms: _200  and  _201
REMARK   87  A    between atoms: _200  and  _203
REMARK   88  A    between atoms: _203  and  _204
REMARK   89  A    between atoms: _208  and  _209
REMARK   90  A    between atoms: _214  and  _216
REMARK   91  A    between atoms: _216  and  _217
REMARK   92  A    between atoms: _216  and  _219
REMARK   93  A    between atoms: _222  and  _224
REMARK   94  A    between atoms: _224  and  _225
REMARK   95  A    between atoms: _224  and  _227
REMARK   96  A    between atoms: _227  and  _228
REMARK   97  A    between atoms: _233  and  _235
REMARK   98  A    between atoms: _235  and  _236
REMARK   99  A    between atoms: _235  and  _238
REMARK  100  A    between atoms: _238  and  _239
REMARK  101  A    between atoms: _242  and  _244
REMARK  102  A    between atoms: _244  and  _245
REMARK  103  A    between atoms: _244  and  _247
REMARK  104  A    between atoms: _247  and  _248
REMARK  105  A    between atoms: _251  and  _253
REMARK  106  A    between atoms: _253  and  _254
REMARK  107  A    between atoms: _256  and  _258
REMARK  108  A    between atoms: _258  and  _259
REMARK  109  A    between atoms: _258  and  _261
REMARK  110  A    between atoms: _261  and  _262
REMARK  111  A    between atoms: _262  and  _263
REMARK  112  A    between atoms: _263  and  _264
REMARK  113  A    between atoms: _273  and  _275
REMARK  114  A    between atoms: _275  and  _276
REMARK  115  A    between atoms: _275  and  _278
REMARK  116  A    between atoms: _278  and  _279
REMARK  117  A    between atoms: _279  and  _280
REMARK  118  A    between atoms: _280  and  _281
REMARK  119  A    between atoms: _290  and  _292
REMARK  120  A    between atoms: _292  and  _293
REMARK  121  A    between atoms: _292  and  _295
REMARK  122  A    between atoms: _295  and  _296
REMARK  123  A    between atoms: _299  and  _301
REMARK  124  A    between atoms: _301  and  _302
REMARK  125  A    between atoms: _301  and  _304
REMARK  126  A    between atoms: _304  and  _305
REMARK  127  A    between atoms: _308  and  _310
REMARK  128  A    between atoms: _310  and  _311
REMARK  129  A    between atoms: _310  and  _313
REMARK  130  A    between atoms: _313  and  _314
REMARK  131  A    between atoms: _317  and  _319
REMARK  132  A    between atoms: _319  and  _320
REMARK  133  A    between atoms: _319  and  _322
REMARK  134  A    between atoms: _322  and  _323
REMARK  135  A    between atoms: _326  and  _328
REMARK  136  A    between atoms: _328  and  _329
REMARK  137  A    between atoms: _328  and  _331
REMARK  138  A    between atoms: _331  and  _332
REMARK  139  A    between atoms: _335  and  _337
REMARK  140  A    between atoms: _337  and  _338
REMARK  141  A    between atoms: _340  and  _342
REMARK  142  A    between atoms: _342  and  _343
REMARK  143  A    between atoms: _346  and  _348
REMARK  144  A    between atoms: _348  and  _349
REMARK  145  A    between atoms: _348  and  _351
REMARK  146  A    between atoms: _351  and  _352
REMARK  147  A    between atoms: _355  and  _357
REMARK  148  A    between atoms: _357  and  _358
REMARK  149  A    between atoms: _357  and  _360
REMARK  150  A    between atoms: _360  and  _361
REMARK  151  A    between atoms: _364  and  _366
REMARK  152  A    between atoms: _366  and  _367
REMARK  153  A    between atoms: _366  and  _369
REMARK  154  A    between atoms: _369  and  _370
REMARK  155  A    between atoms: _373  and  _375
REMARK  156  A    between atoms: _375  and  _376
REMARK  157  A    between atoms: _375  and  _378
REMARK  158  A    between atoms: _381  and  _383
REMARK  159  A    between atoms: _383  and  _384
REMARK  160  A    between atoms: _383  and  _386
REMARK  161  A    between atoms: _386  and  _387
REMARK  162  A    between atoms: _387  and  _388
REMARK  163  A    between atoms: _388  and  _389
REMARK  164  A    between atoms: _389  and  _390
REMARK  165  A    between atoms: _394  and  _396
REMARK  166  A    between atoms: _396  and  _397
REMARK  167  A    between atoms: _396  and  _399
REMARK  168  A    between atoms: _399  and  _400
REMARK  169  A    between atoms: _400  and  _401
REMARK  170  A    between atoms: _403  and  _405
REMARK  171  A    between atoms: _405  and  _406
REMARK  172  A    between atoms: _405  and  _408
REMARK  173  A    between atoms: _408  and  _409
REMARK  174  A    between atoms: _412  and  _414
REMARK  175  A    between atoms: _414  and  _415
REMARK  176  A    between atoms: _417  and  _419
REMARK  177  A    between atoms: _419  and  _420
REMARK  178  A    between atoms: _422  and  _424
REMARK  179  A    between atoms: _424  and  _425
REMARK  180  A    between atoms: _424  and  _427
REMARK  181  A    between atoms: _427  and  _428
REMARK  182  A    between atoms: _431  and  _433
REMARK  183  A    between atoms: _433  and  _434
REMARK  184  A    between atoms: _436  and  _438
REMARK  185  A    between atoms: _438  and  _439
REMARK  186  A    between atoms: _441  and  _443
REMARK  187  A    between atoms: _443  and  _444
REMARK  188  A    between atoms: _443  and  _446
REMARK  189  A    between atoms: _446  and  _447
REMARK  190  A    between atoms: _453  and  _455
REMARK  191  A    between atoms: _455  and  _456
REMARK  192  A    between atoms: _455  and  _458
REMARK  193  A    between atoms: _458  and  _459
REMARK  194  A    between atoms: _462  and  _464
REMARK  195  A    between atoms: _464  and  _465
REMARK  196  A    between atoms: _464  and  _467
REMARK  197  A    between atoms: _470  and  _472
REMARK  198  A    between atoms: _472  and  _473
REMARK  199  A    between atoms: _472  and  _475
REMARK  200  A    between atoms: _475  and  _476
REMARK  201  A    between atoms: _480  and  _481
REMARK  202  A    between atoms: _486  and  _488
REMARK  203  A    between atoms: _488  and  _489
REMARK  204  A    between atoms: _488  and  _491
REMARK  205  A    between atoms: _491  and  _492
REMARK  206  A    between atoms: _496  and  _497
REMARK  207  A    between atoms: _502  and  _504
REMARK  208  A    between atoms: _504  and  _505
REMARK  209  A    between atoms: _504  and  _507
REMARK  210  A    between atoms: _510  and  _512
REMARK  211  A    between atoms: _512  and  _513
REMARK  212  A    between atoms: _512  and  _515
REMARK  213  A    between atoms: _515  and  _516
REMARK  214  A    between atoms: _521  and  _523
REMARK  215  A    between atoms: _523  and  _524
REMARK  216  A    between atoms: _523  and  _526
REMARK  217  A    between atoms: _526  and  _527
REMARK  218  A    between atoms: _530  and  _532
REMARK  219  A    between atoms: _532  and  _533
REMARK  220  A    between atoms: _532  and  _535
REMARK  221  A    between atoms: _535  and  _536
REMARK  222  A    between atoms: _539  and  _541
REMARK  223  A    between atoms: _541  and  _542
REMARK  224  A    between atoms: _544  and  _546
REMARK  225  A    between atoms: _546  and  _547
REMARK  226  A    between atoms: _546  and  _549
REMARK  227  A    between atoms: _549  and  _550
REMARK  228  A    between atoms: _550  and  _551
REMARK  229  A    between atoms: _551  and  _552
REMARK                            x       y       z     vdW  Elec       q    Type
REMARK                         _______ _______ _______ _____ _____    ______ ____
ROOT
ATOM      1  O   HOH     1       4.301  29.256   7.776  0.00  0.00    +0.000 OA
ENDROOT
TORSDOF 0
REMARK  Name = ../refined-set-2016/1ec2/1ec2_pocket.pdb
REMARK  229 active torsions:
REMARK  status: ('A' for Active; 'I' for Inactive)
REMARK    1  A    between atoms: _1  and  _3
REMARK    2  A    between atoms: _3  and  _4
REMARK    3  A    between atoms: _3  and  _6
REMARK    4  A    between atoms: _6  and  _7
REMARK    5  A    between atoms: _7  and  _8
REMARK    6  A    between atoms: _8  and  _9
REMARK    7  A    between atoms: _18  and  _20
REMARK    8  A    between atoms: _20  and  _21
REMARK    9  A    between atoms: _20  and  _23
REMARK   10  A    between atoms: _23  and  _24
REMARK   11  A    between atoms: _27  and  _29
REMARK   12  A    between atoms: _29  and  _30
REMARK   13  A    between atoms: _29  and  _32
REMARK   14  A    between atoms: _32  and  _33
REMARK   15  A    between atoms: _36  and  _38
REMARK   16  A    between atoms: _38  and  _39
REMARK   17  A    between atoms: _38  and  _41
REMARK   18  A    between atoms: _41  and  _42
REMARK   19  A    between atoms: _45  and  _47
REMARK   20  A    between atoms: _47  and  _48
REMARK   21  A    between atoms: _47  and  _50
REMARK   22  A    between atoms: _50  and  _51
REMARK   23  A    between atoms: _54  and  _56
REMARK   24  A    between atoms: _56  and  _57
REMARK   25  A    between atoms: _59  and  _61
REMARK   26  A    between atoms: _61  and  _62
REMARK   27  A    between atoms: _65  and  _67
REMARK   28  A    between atoms: _67  and  _68
REMARK   29  A    between atoms: _67  and  _70
REMARK   30  A    between atoms: _70  and  _71
REMARK   31  A    between atoms: _74  and  _76
REMARK   32  A    between atoms: _76  and  _77
REMARK   33  A    between atoms: _76  and  _79
REMARK   34  A    between atoms: _79  and  _80
REMARK   35  A    between atoms: _83  and  _85
REMARK   36  A    between atoms: _85  and  _86
REMARK   37  A    between atoms: _85  and  _88
REMARK   38  A    between atoms: _88  and  _89
REMARK   39  A    between atoms: _92  and  _94
REMARK   40  A    between atoms: _94  and  _95
REMARK   41  A    between atoms: _94  and  _97
REMARK   42  A    between atoms: _100  and  _102
REMARK   43  A    between atoms: _102  and  _103
REMARK   44  A    between atoms: _102  and  _105
REMARK   45  A    between atoms: _105  and  _106
REMARK   46  A    between atoms: _106  and  _107
REMARK   47  A    between atoms: _107  and  _108
REMARK   48  A    between atoms: _108  and  _109
REMARK   49  A    between atoms: _113  and  _115
REMARK   50  A    between atoms: _115  and  _116
REMARK   51  A    between atoms: _115  and  _118
REMARK   52  A    between atoms: _118  and  _119
REMARK   53  A    between atoms: _119  and  _120
REMARK   54  A    between atoms: _122  and  _124
REMARK   55  A    between atoms: _124  and  _125
REMARK   56  A    between atoms: _124  and  _127
REMARK   57  A    between atoms: _127  and  _128
REMARK   58  A    between atoms: _131  and  _133
REMARK   59  A    between atoms: _133  and  _134
REMARK   60  A    between atoms: _136  and  _138
REMARK   61  A    between atoms: _138  and  _139
REMARK   62  A    between atoms: _141  and  _143
REMARK   63  A    between atoms: _143  and  _144
REMARK   64  A    between atoms: _143  and  _146
REMARK   65  A    between atoms: _146  and  _147
REMARK   66  A    between atoms: _150  and  _152
REMARK   67  A    between atoms: _152  and  _153
REMARK   68  A    between atoms: _155  and  _157
REMARK   69  A    between atoms: _157  and  _158
REMARK   70  A    between atoms: _160  and  _162
REMARK   71  A    between atoms: _162  and  _163
REMARK   72  A    between atoms: _162  and  _165
REMARK   73  A    between atoms: _165  and  _166
REMARK   74  A    between atoms: _172  and  _174
REMARK   75  A    between atoms: _174  and  _175
REMARK   76  A    between atoms: _174  and  _177
REMARK   77  A    between atoms: _177  and  _178
REMARK   78  A    between atoms: _181  and  _183
REMARK   79  A    between atoms: _183  and  _184
REMARK   80  A    between atoms: _183  and  _186
REMARK   81  A    between atoms: _189  and  _191
REMARK   82  A    between atoms: _191  and  _192
REMARK   83  A    between atoms: _191  and  _194
REMARK   84  A    between atoms: _194  and  _195
REMARK   85  A    between atoms: _198  and  _200
REMARK   86  A    between atoms: _200  and  _201
REMARK   87  A    between atoms: _200  and  _203
REMARK   88  A    between atoms: _203  and  _204
REMARK   89  A    between atoms: _208  and  _209
REMARK   90  A    between atoms: _214  and  _216
REMARK   91  A    between atoms: _216  and  _217
REMARK   92  A    between atoms: _216  and  _219
REMARK   93  A    between atoms: _222  and  _224
REMARK   94  A    between atoms: _224  and  _225
REMARK   95  A    between atoms: _224  and  _227
REMARK   96  A    between atoms: _227  and  _228
REMARK   97  A    between atoms: _233  and  _235
REMARK   98  A    between atoms: _235  and  _236
REMARK   99  A    between atoms: _235  and  _238
REMARK  100  A    between atoms: _238  and  _239
REMARK  101  A    between atoms: _242  and  _244
REMARK  102  A    between atoms: _244  and  _245
REMARK  103  A    between atoms: _244  and  _247
REMARK  104  A    between atoms: _247  and  _248
REMARK  105  A    between atoms: _251  and  _253
REMARK  106  A    between atoms: _253  and  _254
REMARK  107  A    between atoms: _256  and  _258
REMARK  108  A    between atoms: _258  and  _259
REMARK  109  A    between atoms: _258  and  _261
REMARK  110  A    between atoms: _261  and  _262
REMARK  111  A    between atoms: _262  and  _263
REMARK  112  A    between atoms: _263  and  _264
REMARK  113  A    between atoms: _273  and  _275
REMARK  114  A    between atoms: _275  and  _276
REMARK  115  A    between atoms: _275  and  _278
REMARK  116  A    between atoms: _278  and  _279
REMARK  117  A    between atoms: _279  and  _280
REMARK  118  A    between atoms: _280  and  _281
REMARK  119  A    between atoms: _290  and  _292
REMARK  120  A    between atoms: _292  and  _293
REMARK  121  A    between atoms: _292  and  _295
REMARK  122  A    between atoms: _295  and  _296
REMARK  123  A    between atoms: _299  and  _301
REMARK  124  A    between atoms: _301  and  _302
REMARK  125  A    between atoms: _301  and  _304
REMARK  126  A    between atoms: _304  and  _305
REMARK  127  A    between atoms: _308  and  _310
REMARK  128  A    between atoms: _310  and  _311
REMARK  129  A    between atoms: _310  and  _313
REMARK  130  A    between atoms: _313  and  _314
REMARK  131  A    between atoms: _317  and  _319
REMARK  132  A    between atoms: _319  and  _320
REMARK  133  A    between atoms: _319  and  _322
REMARK  134  A    between atoms: _322  and  _323
REMARK  135  A    between atoms: _326  and  _328
REMARK  136  A    between atoms: _328  and  _329
REMARK  137  A    between atoms: _328  and  _331
REMARK  138  A    between atoms: _331  and  _332
REMARK  139  A    between atoms: _335  and  _337
REMARK  140  A    between atoms: _337  and  _338
REMARK  141  A    between atoms: _340  and  _342
REMARK  142  A    between atoms: _342  and  _343
REMARK  143  A    between atoms: _346  and  _348
REMARK  144  A    between atoms: _348  and  _349
REMARK  145  A    between atoms: _348  and  _351
REMARK  146  A    between atoms: _351  and  _352
REMARK  147  A    between atoms: _355  and  _357
REMARK  148  A    between atoms: _357  and  _358
REMARK  149  A    between atoms: _357  and  _360
REMARK  150  A    between atoms: _360  and  _361
REMARK  151  A    between atoms: _364  and  _366
REMARK  152  A    between atoms: _366  and  _367
REMARK  153  A    between atoms: _366  and  _369
REMARK  154  A    between atoms: _369  and  _370
REMARK  155  A    between atoms: _373  and  _375
REMARK  156  A    between atoms: _375  and  _376
REMARK  157  A    between atoms: _375  and  _378
REMARK  158  A    between atoms: _381  and  _383
REMARK  159  A    between atoms: _383  and  _384
REMARK  160  A    between atoms: _383  and  _386
REMARK  161  A    between atoms: _386  and  _387
REMARK  162  A    between atoms: _387  and  _388
REMARK  163  A    between atoms: _388  and  _389
REMARK  164  A    between atoms: _389  and  _390
REMARK  165  A    between atoms: _394  and  _396
REMARK  166  A    between atoms: _396  and  _397
REMARK  167  A    between atoms: _396  and  _399
REMARK  168  A    between atoms: _399  and  _400
REMARK  169  A    between atoms: _400  and  _401
REMARK  170  A    between atoms: _403  and  _405
REMARK  171  A    between atoms: _405  and  _406
REMARK  172  A    between atoms: _405  and  _408
REMARK  173  A    between atoms: _408  and  _409
REMARK  174  A    between atoms: _412  and  _414
REMARK  175  A    between atoms: _414  and  _415
REMARK  176  A    between atoms: _417  and  _419
REMARK  177  A    between atoms: _419  and  _420
REMARK  178  A    between atoms: _422  and  _424
REMARK  179  A    between atoms: _424  and  _425
REMARK  180  A    between atoms: _424  and  _427
REMARK  181  A    between atoms: _427  and  _428
REMARK  182  A    between atoms: _431  and  _433
REMARK  183  A    between atoms: _433  and  _434
REMARK  184  A    between atoms: _436  and  _438
REMARK  185  A    between atoms: _438  and  _439
REMARK  186  A    between atoms: _441  and  _443
REMARK  187  A    between atoms: _443  and  _444
REMARK  188  A    between atoms: _443  and  _446
REMARK  189  A    between atoms: _446  and  _447
REMARK  190  A    between atoms: _453  and  _455
REMARK  191  A    between atoms: _455  and  _456
REMARK  192  A    between atoms: _455  and  _458
REMARK  193  A    between atoms: _458  and  _459
REMARK  194  A    between atoms: _462  and  _464
REMARK  195  A    between atoms: _464  and  _465
REMARK  196  A    between atoms: _464  and  _467
REMARK  197  A    between atoms: _470  and  _472
REMARK  198  A    between atoms: _472  and  _473
REMARK  199  A    between atoms: _472  and  _475
REMARK  200  A    between atoms: _475  and  _476
REMARK  201  A    between atoms: _480  and  _481
REMARK  202  A    between atoms: _486  and  _488
REMARK  203  A    between atoms: _488  and  _489
REMARK  204  A    between atoms: _488  and  _491
REMARK  205  A    between atoms: _491  and  _492
REMARK  206  A    between atoms: _496  and  _497
REMARK  207  A    between atoms: _502  and  _504
REMARK  208  A    between atoms: _504  and  _505
REMARK  209  A    between atoms: _504  and  _507
REMARK  210  A    between atoms: _510  and  _512
REMARK  211  A    between atoms: _512  and  _513
REMARK  212  A    between atoms: _512  and  _515
REMARK  213  A    between atoms: _515  and  _516
REMARK  214  A    between atoms: _521  and  _523
REMARK  215  A    between atoms: _523  and  _524
REMARK  216  A    between atoms: _523  and  _526
REMARK  217  A    between atoms: _526  and  _527
REMARK  218  A    between atoms: _530  and  _532
REMARK  219  A    between atoms: _532  and  _533
REMARK  220  A    between atoms: _532  and  _535
REMARK  221  A    between atoms: _535  and  _536
REMARK  222  A    between atoms: _539  and  _541
REMARK  223  A    between atoms: _541  and  _542
REMARK  224  A    between atoms: _544  and  _546
REMARK  225  A    between atoms: _546  and  _547
REMARK  226  A    between atoms: _546  and  _549
REMARK  227  A    between atoms: _549  and  _550
REMARK  228  A    between atoms: _550  and  _551
REMARK  229  A    between atoms: _551  and  _552
REMARK                            x       y       z     vdW  Elec       q    Type
REMARK                         _______ _______ _______ _____ _____    ______ ____
ROOT
ATOM      1  O   HOH     1       4.812  33.088   7.352  0.00  0.00    +0.000 OA
ENDROOT
TORSDOF 0
REMARK  Name = ../refined-set-2016/1ec2/1ec2_pocket.pdb
REMARK  229 active torsions:
REMARK  status: ('A' for Active; 'I' for Inactive)
REMARK    1  A    between atoms: _1  and  _3
REMARK    2  A    between atoms: _3  and  _4
REMARK    3  A    between atoms: _3  and  _6
REMARK    4  A    between atoms: _6  and  _7
REMARK    5  A    between atoms: _7  and  _8
REMARK    6  A    between atoms: _8  and  _9
REMARK    7  A    between atoms: _18  and  _20
REMARK    8  A    between atoms: _20  and  _21
REMARK    9  A    between atoms: _20  and  _23
REMARK   10  A    between atoms: _23  and  _24
REMARK   11  A    between atoms: _27  and  _29
REMARK   12  A    between atoms: _29  and  _30
REMARK   13  A    between atoms: _29  and  _32
REMARK   14  A    between atoms: _32  and  _33
REMARK   15  A    between atoms: _36  and  _38
REMARK   16  A    between atoms: _38  and  _39
REMARK   17  A    between atoms: _38  and  _41
REMARK   18  A    between atoms: _41  and  _42
REMARK   19  A    between atoms: _45  and  _47
REMARK   20  A    between atoms: _47  and  _48
REMARK   21  A    between atoms: _47  and  _50
REMARK   22  A    between atoms: _50  and  _51
REMARK   23  A    between atoms: _54  and  _56
REMARK   24  A    between atoms: _56  and  _57
REMARK   25  A    between atoms: _59  and  _61
REMARK   26  A    between atoms: _61  and  _62
REMARK   27  A    between atoms: _65  and  _67
REMARK   28  A    between atoms: _67  and  _68
REMARK   29  A    between atoms: _67  and  _70
REMARK   30  A    between atoms: _70  and  _71
REMARK   31  A    between atoms: _74  and  _76
REMARK   32  A    between atoms: _76  and  _77
REMARK   33  A    between atoms: _76  and  _79
REMARK   34  A    between atoms: _79  and  _80
REMARK   35  A    between atoms: _83  and  _85
REMARK   36  A    between atoms: _85  and  _86
REMARK   37  A    between atoms: _85  and  _88
REMARK   38  A    between atoms: _88  and  _89
REMARK   39  A    between atoms: _92  and  _94
REMARK   40  A    between atoms: _94  and  _95
REMARK   41  A    between atoms: _94  and  _97
REMARK   42  A    between atoms: _100  and  _102
REMARK   43  A    between atoms: _102  and  _103
REMARK   44  A    between atoms: _102  and  _105
REMARK   45  A    between atoms: _105  and  _106
REMARK   46  A    between atoms: _106  and  _107
REMARK   47  A    between atoms: _107  and  _108
REMARK   48  A    between atoms: _108  and  _109
REMARK   49  A    between atoms: _113  and  _115
REMARK   50  A    between atoms: _115  and  _116
REMARK   51  A    between atoms: _115  and  _118
REMARK   52  A    between atoms: _118  and  _119
REMARK   53  A    between atoms: _119  and  _120
REMARK   54  A    between atoms: _122  and  _124
REMARK   55  A    between atoms: _124  and  _125
REMARK   56  A    between atoms: _124  and  _127
REMARK   57  A    between atoms: _127  and  _128
REMARK   58  A    between atoms: _131  and  _133
REMARK   59  A    between atoms: _133  and  _134
REMARK   60  A    between atoms: _136  and  _138
REMARK   61  A    between atoms: _138  and  _139
REMARK   62  A    between atoms: _141  and  _143
REMARK   63  A    between atoms: _143  and  _144
REMARK   64  A    between atoms: _143  and  _146
REMARK   65  A    between atoms: _146  and  _147
REMARK   66  A    between atoms: _150  and  _152
REMARK   67  A    between atoms: _152  and  _153
REMARK   68  A    between atoms: _155  and  _157
REMARK   69  A    between atoms: _157  and  _158
REMARK   70  A    between atoms: _160  and  _162
REMARK   71  A    between atoms: _162  and  _163
REMARK   72  A    between atoms: _162  and  _165
REMARK   73  A    between atoms: _165  and  _166
REMARK   74  A    between atoms: _172  and  _174
REMARK   75  A    between atoms: _174  and  _175
REMARK   76  A    between atoms: _174  and  _177
REMARK   77  A    between atoms: _177  and  _178
REMARK   78  A    between atoms: _181  and  _183
REMARK   79  A    between atoms: _183  and  _184
REMARK   80  A    between atoms: _183  and  _186
REMARK   81  A    between atoms: _189  and  _191
REMARK   82  A    between atoms: _191  and  _192
REMARK   83  A    between atoms: _191  and  _194
REMARK   84  A    between atoms: _194  and  _195
REMARK   85  A    between atoms: _198  and  _200
REMARK   86  A    between atoms: _200  and  _201
REMARK   87  A    between atoms: _200  and  _203
REMARK   88  A    between atoms: _203  and  _204
REMARK   89  A    between atoms: _208  and  _209
REMARK   90  A    between atoms: _214  and  _216
REMARK   91  A    between atoms: _216  and  _217
REMARK   92  A    between atoms: _216  and  _219
REMARK   93  A    between atoms: _222  and  _224
REMARK   94  A    between atoms: _224  and  _225
REMARK   95  A    between atoms: _224  and  _227
REMARK   96  A    between atoms: _227  and  _228
REMARK   97  A    between atoms: _233  and  _235
REMARK   98  A    between atoms: _235  and  _236
REMARK   99  A    between atoms: _235  and  _238
REMARK  100  A    between atoms: _238  and  _239
REMARK  101  A    between atoms: _242  and  _244
REMARK  102  A    between atoms: _244  and  _245
REMARK  103  A    between atoms: _244  and  _247
REMARK  104  A    between atoms: _247  and  _248
REMARK  105  A    between atoms: _251  and  _253
REMARK  106  A    between atoms: _253  and  _254
REMARK  107  A    between atoms: _256  and  _258
REMARK  108  A    between atoms: _258  and  _259
REMARK  109  A    between atoms: _258  and  _261
REMARK  110  A    between atoms: _261  and  _262
REMARK  111  A    between atoms: _262  and  _263
REMARK  112  A    between atoms: _263  and  _264
REMARK  113  A    between atoms: _273  and  _275
REMARK  114  A    between atoms: _275  and  _276
REMARK  115  A    between atoms: _275  and  _278
REMARK  116  A    between atoms: _278  and  _279
REMARK  117  A    between atoms: _279  and  _280
REMARK  118  A    between atoms: _280  and  _281
REMARK  119  A    between atoms: _290  and  _292
REMARK  120  A    between atoms: _292  and  _293
REMARK  121  A    between atoms: _292  and  _295
REMARK  122  A    between atoms: _295  and  _296
REMARK  123  A    between atoms: _299  and  _301
REMARK  124  A    between atoms: _301  and  _302
REMARK  125  A    between atoms: _301  and  _304
REMARK  126  A    between atoms: _304  and  _305
REMARK  127  A    between atoms: _308  and  _310
REMARK  128  A    between atoms: _310  and  _311
REMARK  129  A    between atoms: _310  and  _313
REMARK  130  A    between atoms: _313  and  _314
REMARK  131  A    between atoms: _317  and  _319
REMARK  132  A    between atoms: _319  and  _320
REMARK  133  A    between atoms: _319  and  _322
REMARK  134  A    between atoms: _322  and  _323
REMARK  135  A    between atoms: _326  and  _328
REMARK  136  A    between atoms: _328  and  _329
REMARK  137  A    between atoms: _328  and  _331
REMARK  138  A    between atoms: _331  and  _332
REMARK  139  A    between atoms: _335  and  _337
REMARK  140  A    between atoms: _337  and  _338
REMARK  141  A    between atoms: _340  and  _342
REMARK  142  A    between atoms: _342  and  _343
REMARK  143  A    between atoms: _346  and  _348
REMARK  144  A    between atoms: _348  and  _349
REMARK  145  A    between atoms: _348  and  _351
REMARK  146  A    between atoms: _351  and  _352
REMARK  147  A    between atoms: _355  and  _357
REMARK  148  A    between atoms: _357  and  _358
REMARK  149  A    between atoms: _357  and  _360
REMARK  150  A    between atoms: _360  and  _361
REMARK  151  A    between atoms: _364  and  _366
REMARK  152  A    between atoms: _366  and  _367
REMARK  153  A    between atoms: _366  and  _369
REMARK  154  A    between atoms: _369  and  _370
REMARK  155  A    between atoms: _373  and  _375
REMARK  156  A    between atoms: _375  and  _376
REMARK  157  A    between atoms: _375  and  _378
REMARK  158  A    between atoms: _381  and  _383
REMARK  159  A    between atoms: _383  and  _384
REMARK  160  A    between atoms: _383  and  _386
REMARK  161  A    between atoms: _386  and  _387
REMARK  162  A    between atoms: _387  and  _388
REMARK  163  A    between atoms: _388  and  _389
REMARK  164  A    between atoms: _389  and  _390
REMARK  165  A    between atoms: _394  and  _396
REMARK  166  A    between atoms: _396  and  _397
REMARK  167  A    between atoms: _396  and  _399
REMARK  168  A    between atoms: _399  and  _400
REMARK  169  A    between atoms: _400  and  _401
REMARK  170  A    between atoms: _403  and  _405
REMARK  171  A    between atoms: _405  and  _406
REMARK  172  A    between atoms: _405  and  _408
REMARK  173  A    between atoms: _408  and  _409
REMARK  174  A    between atoms: _412  and  _414
REMARK  175  A    between atoms: _414  and  _415
REMARK  176  A    between atoms: _417  and  _419
REMARK  177  A    between atoms: _419  and  _420
REMARK  178  A    between atoms: _422  and  _424
REMARK  179  A    between atoms: _424  and  _425
REMARK  180  A    between atoms: _424  and  _427
REMARK  181  A    between atoms: _427  and  _428
REMARK  182  A    between atoms: _431  and  _433
REMARK  183  A    between atoms: _433  and  _434
REMARK  184  A    between atoms: _436  and  _438
REMARK  185  A    between atoms: _438  and  _439
REMARK  186  A    between atoms: _441  and  _443
REMARK  187  A    between atoms: _443  and  _444
REMARK  188  A    between atoms: _443  and  _446
REMARK  189  A    between atoms: _446  and  _447
REMARK  190  A    between atoms: _453  and  _455
REMARK  191  A    between atoms: _455  and  _456
REMARK  192  A    between atoms: _455  and  _458
REMARK  193  A    between atoms: _458  and  _459
REMARK  194  A    between atoms: _462  and  _464
REMARK  195  A    between atoms: _464  and  _465
REMARK  196  A    between atoms: _464  and  _467
REMARK  197  A    between atoms: _470  and  _472
REMARK  198  A    between atoms: _472  and  _473
REMARK  199  A    between atoms: _472  and  _475
REMARK  200  A    between atoms: _475  and  _476
REMARK  201  A    between atoms: _480  and  _481
REMARK  202  A    between atoms: _486  and  _488
REMARK  203  A    between atoms: _488  and  _489
REMARK  204  A    between atoms: _488  and  _491
REMARK  205  A    between atoms: _491  and  _492
REMARK  206  A    between atoms: _496  and  _497
REMARK  207  A    between atoms: _502  and  _504
REMARK  208  A    between atoms: _504  and  _505
REMARK  209  A    between atoms: _504  and  _507
REMARK  210  A    between atoms: _510  and  _512
REMARK  211  A    between atoms: _512  and  _513
REMARK  212  A    between atoms: _512  and  _515
REMARK  213  A    between atoms: _515  and  _516
REMARK  214  A    between atoms: _521  and  _523
REMARK  215  A    between atoms: _523  and  _524
REMARK  216  A    between atoms: _523  and  _526
REMARK  217  A    between atoms: _526  and  _527
REMARK  218  A    between atoms: _530  and  _532
REMARK  219  A    between atoms: _532  and  _533
REMARK  220  A    between atoms: _532  and  _535
REMARK  221  A    between atoms: _535  and  _536
REMARK  222  A    between atoms: _539  and  _541
REMARK  223  A    between atoms: _541  and  _542
REMARK  224  A    between atoms: _544  and  _546
REMARK  225  A    between atoms: _546  and  _547
REMARK  226  A    between atoms: _546  and  _549
REMARK  227  A    between atoms: _549  and  _550
REMARK  228  A    between atoms: _550  and  _551
REMARK  229  A    between atoms: _551  and  _552
REMARK                            x       y       z     vdW  Elec       q    Type
REMARK                         _______ _______ _______ _____ _____    ______ ____
ROOT
ATOM      1  O   HOH     1      22.081  24.060   4.746  0.00  0.00    +0.000 OA
ENDROOT
TORSDOF 0
REMARK  Name = ../refined-set-2016/1ec2/1ec2_pocket.pdb
REMARK  229 active torsions:
REMARK  status: ('A' for Active; 'I' for Inactive)
REMARK    1  A    between atoms: _1  and  _3
REMARK    2  A    between atoms: _3  and  _4
REMARK    3  A    between atoms: _3  and  _6
REMARK    4  A    between atoms: _6  and  _7
REMARK    5  A    between atoms: _7  and  _8
REMARK    6  A    between atoms: _8  and  _9
REMARK    7  A    between atoms: _18  and  _20
REMARK    8  A    between atoms: _20  and  _21
REMARK    9  A    between atoms: _20  and  _23
REMARK   10  A    between atoms: _23  and  _24
REMARK   11  A    between atoms: _27  and  _29
REMARK   12  A    between atoms: _29  and  _30
REMARK   13  A    between atoms: _29  and  _32
REMARK   14  A    between atoms: _32  and  _33
REMARK   15  A    between atoms: _36  and  _38
REMARK   16  A    between atoms: _38  and  _39
REMARK   17  A    between atoms: _38  and  _41
REMARK   18  A    between atoms: _41  and  _42
REMARK   19  A    between atoms: _45  and  _47
REMARK   20  A    between atoms: _47  and  _48
REMARK   21  A    between atoms: _47  and  _50
REMARK   22  A    between atoms: _50  and  _51
REMARK   23  A    between atoms: _54  and  _56
REMARK   24  A    between atoms: _56  and  _57
REMARK   25  A    between atoms: _59  and  _61
REMARK   26  A    between atoms: _61  and  _62
REMARK   27  A    between atoms: _65  and  _67
REMARK   28  A    between atoms: _67  and  _68
REMARK   29  A    between atoms: _67  and  _70
REMARK   30  A    between atoms: _70  and  _71
REMARK   31  A    between atoms: _74  and  _76
REMARK   32  A    between atoms: _76  and  _77
REMARK   33  A    between atoms: _76  and  _79
REMARK   34  A    between atoms: _79  and  _80
REMARK   35  A    between atoms: _83  and  _85
REMARK   36  A    between atoms: _85  and  _86
REMARK   37  A    between atoms: _85  and  _88
REMARK   38  A    between atoms: _88  and  _89
REMARK   39  A    between atoms: _92  and  _94
REMARK   40  A    between atoms: _94  and  _95
REMARK   41  A    between atoms: _94  and  _97
REMARK   42  A    between atoms: _100  and  _102
REMARK   43  A    between atoms: _102  and  _103
REMARK   44  A    between atoms: _102  and  _105
REMARK   45  A    between atoms: _105  and  _106
REMARK   46  A    between atoms: _106  and  _107
REMARK   47  A    between atoms: _107  and  _108
REMARK   48  A    between atoms: _108  and  _109
REMARK   49  A    between atoms: _113  and  _115
REMARK   50  A    between atoms: _115  and  _116
REMARK   51  A    between atoms: _115  and  _118
REMARK   52  A    between atoms: _118  and  _119
REMARK   53  A    between atoms: _119  and  _120
REMARK   54  A    between atoms: _122  and  _124
REMARK   55  A    between atoms: _124  and  _125
REMARK   56  A    between atoms: _124  and  _127
REMARK   57  A    between atoms: _127  and  _128
REMARK   58  A    between atoms: _131  and  _133
REMARK   59  A    between atoms: _133  and  _134
REMARK   60  A    between atoms: _136  and  _138
REMARK   61  A    between atoms: _138  and  _139
REMARK   62  A    between atoms: _141  and  _143
REMARK   63  A    between atoms: _143  and  _144
REMARK   64  A    between atoms: _143  and  _146
REMARK   65  A    between atoms: _146  and  _147
REMARK   66  A    between atoms: _150  and  _152
REMARK   67  A    between atoms: _152  and  _153
REMARK   68  A    between atoms: _155  and  _157
REMARK   69  A    between atoms: _157  and  _158
REMARK   70  A    between atoms: _160  and  _162
REMARK   71  A    between atoms: _162  and  _163
REMARK   72  A    between atoms: _162  and  _165
REMARK   73  A    between atoms: _165  and  _166
REMARK   74  A    between atoms: _172  and  _174
REMARK   75  A    between atoms: _174  and  _175
REMARK   76  A    between atoms: _174  and  _177
REMARK   77  A    between atoms: _177  and  _178
REMARK   78  A    between atoms: _181  and  _183
REMARK   79  A    between atoms: _183  and  _184
REMARK   80  A    between atoms: _183  and  _186
REMARK   81  A    between atoms: _189  and  _191
REMARK   82  A    between atoms: _191  and  _192
REMARK   83  A    between atoms: _191  and  _194
REMARK   84  A    between atoms: _194  and  _195
REMARK   85  A    between atoms: _198  and  _200
REMARK   86  A    between atoms: _200  and  _201
REMARK   87  A    between atoms: _200  and  _203
REMARK   88  A    between atoms: _203  and  _204
REMARK   89  A    between atoms: _208  and  _209
REMARK   90  A    between atoms: _214  and  _216
REMARK   91  A    between atoms: _216  and  _217
REMARK   92  A    between atoms: _216  and  _219
REMARK   93  A    between atoms: _222  and  _224
REMARK   94  A    between atoms: _224  and  _225
REMARK   95  A    between atoms: _224  and  _227
REMARK   96  A    between atoms: _227  and  _228
REMARK   97  A    between atoms: _233  and  _235
REMARK   98  A    between atoms: _235  and  _236
REMARK   99  A    between atoms: _235  and  _238
REMARK  100  A    between atoms: _238  and  _239
REMARK  101  A    between atoms: _242  and  _244
REMARK  102  A    between atoms: _244  and  _245
REMARK  103  A    between atoms: _244  and  _247
REMARK  104  A    between atoms: _247  and  _248
REMARK  105  A    between atoms: _251  and  _253
REMARK  106  A    between atoms: _253  and  _254
REMARK  107  A    between atoms: _256  and  _258
REMARK  108  A    between atoms: _258  and  _259
REMARK  109  A    between atoms: _258  and  _261
REMARK  110  A    between atoms: _261  and  _262
REMARK  111  A    between atoms: _262  and  _263
REMARK  112  A    between atoms: _263  and  _264
REMARK  113  A    between atoms: _273  and  _275
REMARK  114  A    between atoms: _275  and  _276
REMARK  115  A    between atoms: _275  and  _278
REMARK  116  A    between atoms: _278  and  _279
REMARK  117  A    between atoms: _279  and  _280
REMARK  118  A    between atoms: _280  and  _281
REMARK  119  A    between atoms: _290  and  _292
REMARK  120  A    between atoms: _292  and  _293
REMARK  121  A    between atoms: _292  and  _295
REMARK  122  A    between atoms: _295  and  _296
REMARK  123  A    between atoms: _299  and  _301
REMARK  124  A    between atoms: _301  and  _302
REMARK  125  A    between atoms: _301  and  _304
REMARK  126  A    between atoms: _304  and  _305
REMARK  127  A    between atoms: _308  and  _310
REMARK  128  A    between atoms: _310  and  _311
REMARK  129  A    between atoms: _310  and  _313
REMARK  130  A    between atoms: _313  and  _314
REMARK  131  A    between atoms: _317  and  _319
REMARK  132  A    between atoms: _319  and  _320
REMARK  133  A    between atoms: _319  and  _322
REMARK  134  A    between atoms: _322  and  _323
REMARK  135  A    between atoms: _326  and  _328
REMARK  136  A    between atoms: _328  and  _329
REMARK  137  A    between atoms: _328  and  _331
REMARK  138  A    between atoms: _331  and  _332
REMARK  139  A    between atoms: _335  and  _337
REMARK  140  A    between atoms: _337  and  _338
REMARK  141  A    between atoms: _340  and  _342
REMARK  142  A    between atoms: _342  and  _343
REMARK  143  A    between atoms: _346  and  _348
REMARK  144  A    between atoms: _348  and  _349
REMARK  145  A    between atoms: _348  and  _351
REMARK  146  A    between atoms: _351  and  _352
REMARK  147  A    between atoms: _355  and  _357
REMARK  148  A    between atoms: _357  and  _358
REMARK  149  A    between atoms: _357  and  _360
REMARK  150  A    between atoms: _360  and  _361
REMARK  151  A    between atoms: _364  and  _366
REMARK  152  A    between atoms: _366  and  _367
REMARK  153  A    between atoms: _366  and  _369
REMARK  154  A    between atoms: _369  and  _370
REMARK  155  A    between atoms: _373  and  _375
REMARK  156  A    between atoms: _375  and  _376
REMARK  157  A    between atoms: _375  and  _378
REMARK  158  A    between atoms: _381  and  _383
REMARK  159  A    between atoms: _383  and  _384
REMARK  160  A    between atoms: _383  and  _386
REMARK  161  A    between atoms: _386  and  _387
REMARK  162  A    between atoms: _387  and  _388
REMARK  163  A    between atoms: _388  and  _389
REMARK  164  A    between atoms: _389  and  _390
REMARK  165  A    between atoms: _394  and  _396
REMARK  166  A    between atoms: _396  and  _397
REMARK  167  A    between atoms: _396  and  _399
REMARK  168  A    between atoms: _399  and  _400
REMARK  169  A    between atoms: _400  and  _401
REMARK  170  A    between atoms: _403  and  _405
REMARK  171  A    between atoms: _405  and  _406
REMARK  172  A    between atoms: _405  and  _408
REMARK  173  A    between atoms: _408  and  _409
REMARK  174  A    between atoms: _412  and  _414
REMARK  175  A    between atoms: _414  and  _415
REMARK  176  A    between atoms: _417  and  _419
REMARK  177  A    between atoms: _419  and  _420
REMARK  178  A    between atoms: _422  and  _424
REMARK  179  A    between atoms: _424  and  _425
REMARK  180  A    between atoms: _424  and  _427
REMARK  181  A    between atoms: _427  and  _428
REMARK  182  A    between atoms: _431  and  _433
REMARK  183  A    between atoms: _433  and  _434
REMARK  184  A    between atoms: _436  and  _438
REMARK  185  A    between atoms: _438  and  _439
REMARK  186  A    between atoms: _441  and  _443
REMARK  187  A    between atoms: _443  and  _444
REMARK  188  A    between atoms: _443  and  _446
REMARK  189  A    between atoms: _446  and  _447
REMARK  190  A    between atoms: _453  and  _455
REMARK  191  A    between atoms: _455  and  _456
REMARK  192  A    between atoms: _455  and  _458
REMARK  193  A    between atoms: _458  and  _459
REMARK  194  A    between atoms: _462  and  _464
REMARK  195  A    between atoms: _464  and  _465
REMARK  196  A    between atoms: _464  and  _467
REMARK  197  A    between atoms: _470  and  _472
REMARK  198  A    between atoms: _472  and  _473
REMARK  199  A    between atoms: _472  and  _475
REMARK  200  A    between atoms: _475  and  _476
REMARK  201  A    between atoms: _480  and  _481
REMARK  202  A    between atoms: _486  and  _488
REMARK  203  A    between atoms: _488  and  _489
REMARK  204  A    between atoms: _488  and  _491
REMARK  205  A    between atoms: _491  and  _492
REMARK  206  A    between atoms: _496  and  _497
REMARK  207  A    between atoms: _502  and  _504
REMARK  208  A    between atoms: _504  and  _505
REMARK  209  A    between atoms: _504  and  _507
REMARK  210  A    between atoms: _510  and  _512
REMARK  211  A    between atoms: _512  and  _513
REMARK  212  A    between atoms: _512  and  _515
REMARK  213  A    between atoms: _515  and  _516
REMARK  214  A    between atoms: _521  and  _523
REMARK  215  A    between atoms: _523  and  _524
REMARK  216  A    between atoms: _523  and  _526
REMARK  217  A    between atoms: _526  and  _527
REMARK  218  A    between atoms: _530  and  _532
REMARK  219  A    between atoms: _532  and  _533
REMARK  220  A    between atoms: _532  and  _535
REMARK  221  A    between atoms: _535  and  _536
REMARK  222  A    between atoms: _539  and  _541
REMARK  223  A    between atoms: _541  and  _542
REMARK  224  A    between atoms: _544  and  _546
REMARK  225  A    between atoms: _546  and  _547
REMARK  226  A    between atoms: _546  and  _549
REMARK  227  A    between atoms: _549  and  _550
REMARK  228  A    between atoms: _550  and  _551
REMARK  229  A    between atoms: _551  and  _552
REMARK                            x       y       z     vdW  Elec       q    Type
REMARK                         _______ _______ _______ _____ _____    ______ ____
ROOT
ATOM      1  O   HOH     1      20.820  22.297   6.331  0.00  0.00    +0.000 OA
ENDROOT
TORSDOF 0
REMARK  Name = ../refined-set-2016/1ec2/1ec2_pocket.pdb
REMARK  229 active torsions:
REMARK  status: ('A' for Active; 'I' for Inactive)
REMARK    1  A    between atoms: _1  and  _3
REMARK    2  A    between atoms: _3  and  _4
REMARK    3  A    between atoms: _3  and  _6
REMARK    4  A    between atoms: _6  and  _7
REMARK    5  A    between atoms: _7  and  _8
REMARK    6  A    between atoms: _8  and  _9
REMARK    7  A    between atoms: _18  and  _20
REMARK    8  A    between atoms: _20  and  _21
REMARK    9  A    between atoms: _20  and  _23
REMARK   10  A    between atoms: _23  and  _24
REMARK   11  A    between atoms: _27  and  _29
REMARK   12  A    between atoms: _29  and  _30
REMARK   13  A    between atoms: _29  and  _32
REMARK   14  A    between atoms: _32  and  _33
REMARK   15  A    between atoms: _36  and  _38
REMARK   16  A    between atoms: _38  and  _39
REMARK   17  A    between atoms: _38  and  _41
REMARK   18  A    between atoms: _41  and  _42
REMARK   19  A    between atoms: _45  and  _47
REMARK   20  A    between atoms: _47  and  _48
REMARK   21  A    between atoms: _47  and  _50
REMARK   22  A    between atoms: _50  and  _51
REMARK   23  A    between atoms: _54  and  _56
REMARK   24  A    between atoms: _56  and  _57
REMARK   25  A    between atoms: _59  and  _61
REMARK   26  A    between atoms: _61  and  _62
REMARK   27  A    between atoms: _65  and  _67
REMARK   28  A    between atoms: _67  and  _68
REMARK   29  A    between atoms: _67  and  _70
REMARK   30  A    between atoms: _70  and  _71
REMARK   31  A    between atoms: _74  and  _76
REMARK   32  A    between atoms: _76  and  _77
REMARK   33  A    between atoms: _76  and  _79
REMARK   34  A    between atoms: _79  and  _80
REMARK   35  A    between atoms: _83  and  _85
REMARK   36  A    between atoms: _85  and  _86
REMARK   37  A    between atoms: _85  and  _88
REMARK   38  A    between atoms: _88  and  _89
REMARK   39  A    between atoms: _92  and  _94
REMARK   40  A    between atoms: _94  and  _95
REMARK   41  A    between atoms: _94  and  _97
REMARK   42  A    between atoms: _100  and  _102
REMARK   43  A    between atoms: _102  and  _103
REMARK   44  A    between atoms: _102  and  _105
REMARK   45  A    between atoms: _105  and  _106
REMARK   46  A    between atoms: _106  and  _107
REMARK   47  A    between atoms: _107  and  _108
REMARK   48  A    between atoms: _108  and  _109
REMARK   49  A    between atoms: _113  and  _115
REMARK   50  A    between atoms: _115  and  _116
REMARK   51  A    between atoms: _115  and  _118
REMARK   52  A    between atoms: _118  and  _119
REMARK   53  A    between atoms: _119  and  _120
REMARK   54  A    between atoms: _122  and  _124
REMARK   55  A    between atoms: _124  and  _125
REMARK   56  A    between atoms: _124  and  _127
REMARK   57  A    between atoms: _127  and  _128
REMARK   58  A    between atoms: _131  and  _133
REMARK   59  A    between atoms: _133  and  _134
REMARK   60  A    between atoms: _136  and  _138
REMARK   61  A    between atoms: _138  and  _139
REMARK   62  A    between atoms: _141  and  _143
REMARK   63  A    between atoms: _143  and  _144
REMARK   64  A    between atoms: _143  and  _146
REMARK   65  A    between atoms: _146  and  _147
REMARK   66  A    between atoms: _150  and  _152
REMARK   67  A    between atoms: _152  and  _153
REMARK   68  A    between atoms: _155  and  _157
REMARK   69  A    between atoms: _157  and  _158
REMARK   70  A    between atoms: _160  and  _162
REMARK   71  A    between atoms: _162  and  _163
REMARK   72  A    between atoms: _162  and  _165
REMARK   73  A    between atoms: _165  and  _166
REMARK   74  A    between atoms: _172  and  _174
REMARK   75  A    between atoms: _174  and  _175
REMARK   76  A    between atoms: _174  and  _177
REMARK   77  A    between atoms: _177  and  _178
REMARK   78  A    between atoms: _181  and  _183
REMARK   79  A    between atoms: _183  and  _184
REMARK   80  A    between atoms: _183  and  _186
REMARK   81  A    between atoms: _189  and  _191
REMARK   82  A    between atoms: _191  and  _192
REMARK   83  A    between atoms: _191  and  _194
REMARK   84  A    between atoms: _194  and  _195
REMARK   85  A    between atoms: _198  and  _200
REMARK   86  A    between atoms: _200  and  _201
REMARK   87  A    between atoms: _200  and  _203
REMARK   88  A    between atoms: _203  and  _204
REMARK   89  A    between atoms: _208  and  _209
REMARK   90  A    between atoms: _214  and  _216
REMARK   91  A    between atoms: _216  and  _217
REMARK   92  A    between atoms: _216  and  _219
REMARK   93  A    between atoms: _222  and  _224
REMARK   94  A    between atoms: _224  and  _225
REMARK   95  A    between atoms: _224  and  _227
REMARK   96  A    between atoms: _227  and  _228
REMARK   97  A    between atoms: _233  and  _235
REMARK   98  A    between atoms: _235  and  _236
REMARK   99  A    between atoms: _235  and  _238
REMARK  100  A    between atoms: _238  and  _239
REMARK  101  A    between atoms: _242  and  _244
REMARK  102  A    between atoms: _244  and  _245
REMARK  103  A    between atoms: _244  and  _247
REMARK  104  A    between atoms: _247  and  _248
REMARK  105  A    between atoms: _251  and  _253
REMARK  106  A    between atoms: _253  and  _254
REMARK  107  A    between atoms: _256  and  _258
REMARK  108  A    between atoms: _258  and  _259
REMARK  109  A    between atoms: _258  and  _261
REMARK  110  A    between atoms: _261  and  _262
REMARK  111  A    between atoms: _262  and  _263
REMARK  112  A    between atoms: _263  and  _264
REMARK  113  A    between atoms: _273  and  _275
REMARK  114  A    between atoms: _275  and  _276
REMARK  115  A    between atoms: _275  and  _278
REMARK  116  A    between atoms: _278  and  _279
REMARK  117  A    between atoms: _279  and  _280
REMARK  118  A    between atoms: _280  and  _281
REMARK  119  A    between atoms: _290  and  _292
REMARK  120  A    between atoms: _292  and  _293
REMARK  121  A    between atoms: _292  and  _295
REMARK  122  A    between atoms: _295  and  _296
REMARK  123  A    between atoms: _299  and  _301
REMARK  124  A    between atoms: _301  and  _302
REMARK  125  A    between atoms: _301  and  _304
REMARK  126  A    between atoms: _304  and  _305
REMARK  127  A    between atoms: _308  and  _310
REMARK  128  A    between atoms: _310  and  _311
REMARK  129  A    between atoms: _310  and  _313
REMARK  130  A    between atoms: _313  and  _314
REMARK  131  A    between atoms: _317  and  _319
REMARK  132  A    between atoms: _319  and  _320
REMARK  133  A    between atoms: _319  and  _322
REMARK  134  A    between atoms: _322  and  _323
REMARK  135  A    between atoms: _326  and  _328
REMARK  136  A    between atoms: _328  and  _329
REMARK  137  A    between atoms: _328  and  _331
REMARK  138  A    between atoms: _331  and  _332
REMARK  139  A    between atoms: _335  and  _337
REMARK  140  A    between atoms: _337  and  _338
REMARK  141  A    between atoms: _340  and  _342
REMARK  142  A    between atoms: _342  and  _343
REMARK  143  A    between atoms: _346  and  _348
REMARK  144  A    between atoms: _348  and  _349
REMARK  145  A    between atoms: _348  and  _351
REMARK  146  A    between atoms: _351  and  _352
REMARK  147  A    between atoms: _355  and  _357
REMARK  148  A    between atoms: _357  and  _358
REMARK  149  A    between atoms: _357  and  _360
REMARK  150  A    between atoms: _360  and  _361
REMARK  151  A    between atoms: _364  and  _366
REMARK  152  A    between atoms: _366  and  _367
REMARK  153  A    between atoms: _366  and  _369
REMARK  154  A    between atoms: _369  and  _370
REMARK  155  A    between atoms: _373  and  _375
REMARK  156  A    between atoms: _375  and  _376
REMARK  157  A    between atoms: _375  and  _378
REMARK  158  A    between atoms: _381  and  _383
REMARK  159  A    between atoms: _383  and  _384
REMARK  160  A    between atoms: _383  and  _386
REMARK  161  A    between atoms: _386  and  _387
REMARK  162  A    between atoms: _387  and  _388
REMARK  163  A    between atoms: _388  and  _389
REMARK  164  A    between atoms: _389  and  _390
REMARK  165  A    between atoms: _394  and  _396
REMARK  166  A    between atoms: _396  and  _397
REMARK  167  A    between atoms: _396  and  _399
REMARK  168  A    between atoms: _399  and  _400
REMARK  169  A    between atoms: _400  and  _401
REMARK  170  A    between atoms: _403  and  _405
REMARK  171  A    between atoms: _405  and  _406
REMARK  172  A    between atoms: _405  and  _408
REMARK  173  A    between atoms: _408  and  _409
REMARK  174  A    between atoms: _412  and  _414
REMARK  175  A    between atoms: _414  and  _415
REMARK  176  A    between atoms: _417  and  _419
REMARK  177  A    between atoms: _419  and  _420
REMARK  178  A    between atoms: _422  and  _424
REMARK  179  A    between atoms: _424  and  _425
REMARK  180  A    between atoms: _424  and  _427
REMARK  181  A    between atoms: _427  and  _428
REMARK  182  A    between atoms: _431  and  _433
REMARK  183  A    between atoms: _433  and  _434
REMARK  184  A    between atoms: _436  and  _438
REMARK  185  A    between atoms: _438  and  _439
REMARK  186  A    between atoms: _441  and  _443
REMARK  187  A    between atoms: _443  and  _444
REMARK  188  A    between atoms: _443  and  _446
REMARK  189  A    between atoms: _446  and  _447
REMARK  190  A    between atoms: _453  and  _455
REMARK  191  A    between atoms: _455  and  _456
REMARK  192  A    between atoms: _455  and  _458
REMARK  193  A    between atoms: _458  and  _459
REMARK  194  A    between atoms: _462  and  _464
REMARK  195  A    between atoms: _464  and  _465
REMARK  196  A    between atoms: _464  and  _467
REMARK  197  A    between atoms: _470  and  _472
REMARK  198  A    between atoms: _472  and  _473
REMARK  199  A    between atoms: _472  and  _475
REMARK  200  A    between atoms: _475  and  _476
REMARK  201  A    between atoms: _480  and  _481
REMARK  202  A    between atoms: _486  and  _488
REMARK  203  A    between atoms: _488  and  _489
REMARK  204  A    between atoms: _488  and  _491
REMARK  205  A    between atoms: _491  and  _492
REMARK  206  A    between atoms: _496  and  _497
REMARK  207  A    between atoms: _502  and  _504
REMARK  208  A    between atoms: _504  and  _505
REMARK  209  A    between atoms: _504  and  _507
REMARK  210  A    between atoms: _510  and  _512
REMARK  211  A    between atoms: _512  and  _513
REMARK  212  A    between atoms: _512  and  _515
REMARK  213  A    between atoms: _515  and  _516
REMARK  214  A    between atoms: _521  and  _523
REMARK  215  A    between atoms: _523  and  _524
REMARK  216  A    between atoms: _523  and  _526
REMARK  217  A    between atoms: _526  and  _527
REMARK  218  A    between atoms: _530  and  _532
REMARK  219  A    between atoms: _532  and  _533
REMARK  220  A    between atoms: _532  and  _535
REMARK  221  A    between atoms: _535  and  _536
REMARK  222  A    between atoms: _539  and  _541
REMARK  223  A    between atoms: _541  and  _542
REMARK  224  A    between atoms: _544  and  _546
REMARK  225  A    between atoms: _546  and  _547
REMARK  226  A    between atoms: _546  and  _549
REMARK  227  A    between atoms: _549  and  _550
REMARK  228  A    between atoms: _550  and  _551
REMARK  229  A    between atoms: _551  and  _552
REMARK                            x       y       z     vdW  Elec       q    Type
REMARK                         _______ _______ _______ _____ _____    ______ ____
ROOT
ATOM      1  O   HOH     1      11.778  21.239   6.701  0.00  0.00    +0.000 OA
ENDROOT
TORSDOF 0
REMARK  Name = ../refined-set-2016/1ec2/1ec2_pocket.pdb
REMARK  229 active torsions:
REMARK  status: ('A' for Active; 'I' for Inactive)
REMARK    1  A    between atoms: _1  and  _3
REMARK    2  A    between atoms: _3  and  _4
REMARK    3  A    between atoms: _3  and  _6
REMARK    4  A    between atoms: _6  and  _7
REMARK    5  A    between atoms: _7  and  _8
REMARK    6  A    between atoms: _8  and  _9
REMARK    7  A    between atoms: _18  and  _20
REMARK    8  A    between atoms: _20  and  _21
REMARK    9  A    between atoms: _20  and  _23
REMARK   10  A    between atoms: _23  and  _24
REMARK   11  A    between atoms: _27  and  _29
REMARK   12  A    between atoms: _29  and  _30
REMARK   13  A    between atoms: _29  and  _32
REMARK   14  A    between atoms: _32  and  _33
REMARK   15  A    between atoms: _36  and  _38
REMARK   16  A    between atoms: _38  and  _39
REMARK   17  A    between atoms: _38  and  _41
REMARK   18  A    between atoms: _41  and  _42
REMARK   19  A    between atoms: _45  and  _47
REMARK   20  A    between atoms: _47  and  _48
REMARK   21  A    between atoms: _47  and  _50
REMARK   22  A    between atoms: _50  and  _51
REMARK   23  A    between atoms: _54  and  _56
REMARK   24  A    between atoms: _56  and  _57
REMARK   25  A    between atoms: _59  and  _61
REMARK   26  A    between atoms: _61  and  _62
REMARK   27  A    between atoms: _65  and  _67
REMARK   28  A    between atoms: _67  and  _68
REMARK   29  A    between atoms: _67  and  _70
REMARK   30  A    between atoms: _70  and  _71
REMARK   31  A    between atoms: _74  and  _76
REMARK   32  A    between atoms: _76  and  _77
REMARK   33  A    between atoms: _76  and  _79
REMARK   34  A    between atoms: _79  and  _80
REMARK   35  A    between atoms: _83  and  _85
REMARK   36  A    between atoms: _85  and  _86
REMARK   37  A    between atoms: _85  and  _88
REMARK   38  A    between atoms: _88  and  _89
REMARK   39  A    between atoms: _92  and  _94
REMARK   40  A    between atoms: _94  and  _95
REMARK   41  A    between atoms: _94  and  _97
REMARK   42  A    between atoms: _100  and  _102
REMARK   43  A    between atoms: _102  and  _103
REMARK   44  A    between atoms: _102  and  _105
REMARK   45  A    between atoms: _105  and  _106
REMARK   46  A    between atoms: _106  and  _107
REMARK   47  A    between atoms: _107  and  _108
REMARK   48  A    between atoms: _108  and  _109
REMARK   49  A    between atoms: _113  and  _115
REMARK   50  A    between atoms: _115  and  _116
REMARK   51  A    between atoms: _115  and  _118
REMARK   52  A    between atoms: _118  and  _119
REMARK   53  A    between atoms: _119  and  _120
REMARK   54  A    between atoms: _122  and  _124
REMARK   55  A    between atoms: _124  and  _125
REMARK   56  A    between atoms: _124  and  _127
REMARK   57  A    between atoms: _127  and  _128
REMARK   58  A    between atoms: _131  and  _133
REMARK   59  A    between atoms: _133  and  _134
REMARK   60  A    between atoms: _136  and  _138
REMARK   61  A    between atoms: _138  and  _139
REMARK   62  A    between atoms: _141  and  _143
REMARK   63  A    between atoms: _143  and  _144
REMARK   64  A    between atoms: _143  and  _146
REMARK   65  A    between atoms: _146  and  _147
REMARK   66  A    between atoms: _150  and  _152
REMARK   67  A    between atoms: _152  and  _153
REMARK   68  A    between atoms: _155  and  _157
REMARK   69  A    between atoms: _157  and  _158
REMARK   70  A    between atoms: _160  and  _162
REMARK   71  A    between atoms: _162  and  _163
REMARK   72  A    between atoms: _162  and  _165
REMARK   73  A    between atoms: _165  and  _166
REMARK   74  A    between atoms: _172  and  _174
REMARK   75  A    between atoms: _174  and  _175
REMARK   76  A    between atoms: _174  and  _177
REMARK   77  A    between atoms: _177  and  _178
REMARK   78  A    between atoms: _181  and  _183
REMARK   79  A    between atoms: _183  and  _184
REMARK   80  A    between atoms: _183  and  _186
REMARK   81  A    between atoms: _189  and  _191
REMARK   82  A    between atoms: _191  and  _192
REMARK   83  A    between atoms: _191  and  _194
REMARK   84  A    between atoms: _194  and  _195
REMARK   85  A    between atoms: _198  and  _200
REMARK   86  A    between atoms: _200  and  _201
REMARK   87  A    between atoms: _200  and  _203
REMARK   88  A    between atoms: _203  and  _204
REMARK   89  A    between atoms: _208  and  _209
REMARK   90  A    between atoms: _214  and  _216
REMARK   91  A    between atoms: _216  and  _217
REMARK   92  A    between atoms: _216  and  _219
REMARK   93  A    between atoms: _222  and  _224
REMARK   94  A    between atoms: _224  and  _225
REMARK   95  A    between atoms: _224  and  _227
REMARK   96  A    between atoms: _227  and  _228
REMARK   97  A    between atoms: _233  and  _235
REMARK   98  A    between atoms: _235  and  _236
REMARK   99  A    between atoms: _235  and  _238
REMARK  100  A    between atoms: _238  and  _239
REMARK  101  A    between atoms: _242  and  _244
REMARK  102  A    between atoms: _244  and  _245
REMARK  103  A    between atoms: _244  and  _247
REMARK  104  A    between atoms: _247  and  _248
REMARK  105  A    between atoms: _251  and  _253
REMARK  106  A    between atoms: _253  and  _254
REMARK  107  A    between atoms: _256  and  _258
REMARK  108  A    between atoms: _258  and  _259
REMARK  109  A    between atoms: _258  and  _261
REMARK  110  A    between atoms: _261  and  _262
REMARK  111  A    between atoms: _262  and  _263
REMARK  112  A    between atoms: _263  and  _264
REMARK  113  A    between atoms: _273  and  _275
REMARK  114  A    between atoms: _275  and  _276
REMARK  115  A    between atoms: _275  and  _278
REMARK  116  A    between atoms: _278  and  _279
REMARK  117  A    between atoms: _279  and  _280
REMARK  118  A    between atoms: _280  and  _281
REMARK  119  A    between atoms: _290  and  _292
REMARK  120  A    between atoms: _292  and  _293
REMARK  121  A    between atoms: _292  and  _295
REMARK  122  A    between atoms: _295  and  _296
REMARK  123  A    between atoms: _299  and  _301
REMARK  124  A    between atoms: _301  and  _302
REMARK  125  A    between atoms: _301  and  _304
REMARK  126  A    between atoms: _304  and  _305
REMARK  127  A    between atoms: _308  and  _310
REMARK  128  A    between atoms: _310  and  _311
REMARK  129  A    between atoms: _310  and  _313
REMARK  130  A    between atoms: _313  and  _314
REMARK  131  A    between atoms: _317  and  _319
REMARK  132  A    between atoms: _319  and  _320
REMARK  133  A    between atoms: _319  and  _322
REMARK  134  A    between atoms: _322  and  _323
REMARK  135  A    between atoms: _326  and  _328
REMARK  136  A    between atoms: _328  and  _329
REMARK  137  A    between atoms: _328  and  _331
REMARK  138  A    between atoms: _331  and  _332
REMARK  139  A    between atoms: _335  and  _337
REMARK  140  A    between atoms: _337  and  _338
REMARK  141  A    between atoms: _340  and  _342
REMARK  142  A    between atoms: _342  and  _343
REMARK  143  A    between atoms: _346  and  _348
REMARK  144  A    between atoms: _348  and  _349
REMARK  145  A    between atoms: _348  and  _351
REMARK  146  A    between atoms: _351  and  _352
REMARK  147  A    between atoms: _355  and  _357
REMARK  148  A    between atoms: _357  and  _358
REMARK  149  A    between atoms: _357  and  _360
REMARK  150  A    between atoms: _360  and  _361
REMARK  151  A    between atoms: _364  and  _366
REMARK  152  A    between atoms: _366  and  _367
REMARK  153  A    between atoms: _366  and  _369
REMARK  154  A    between atoms: _369  and  _370
REMARK  155  A    between atoms: _373  and  _375
REMARK  156  A    between atoms: _375  and  _376
REMARK  157  A    between atoms: _375  and  _378
REMARK  158  A    between atoms: _381  and  _383
REMARK  159  A    between atoms: _383  and  _384
REMARK  160  A    between atoms: _383  and  _386
REMARK  161  A    between atoms: _386  and  _387
REMARK  162  A    between atoms: _387  and  _388
REMARK  163  A    between atoms: _388  and  _389
REMARK  164  A    between atoms: _389  and  _390
REMARK  165  A    between atoms: _394  and  _396
REMARK  166  A    between atoms: _396  and  _397
REMARK  167  A    between atoms: _396  and  _399
REMARK  168  A    between atoms: _399  and  _400
REMARK  169  A    between atoms: _400  and  _401
REMARK  170  A    between atoms: _403  and  _405
REMARK  171  A    between atoms: _405  and  _406
REMARK  172  A    between atoms: _405  and  _408
REMARK  173  A    between atoms: _408  and  _409
REMARK  174  A    between atoms: _412  and  _414
REMARK  175  A    between atoms: _414  and  _415
REMARK  176  A    between atoms: _417  and  _419
REMARK  177  A    between atoms: _419  and  _420
REMARK  178  A    between atoms: _422  and  _424
REMARK  179  A    between atoms: _424  and  _425
REMARK  180  A    between atoms: _424  and  _427
REMARK  181  A    between atoms: _427  and  _428
REMARK  182  A    between atoms: _431  and  _433
REMARK  183  A    between atoms: _433  and  _434
REMARK  184  A    between atoms: _436  and  _438
REMARK  185  A    between atoms: _438  and  _439
REMARK  186  A    between atoms: _441  and  _443
REMARK  187  A    between atoms: _443  and  _444
REMARK  188  A    between atoms: _443  and  _446
REMARK  189  A    between atoms: _446  and  _447
REMARK  190  A    between atoms: _453  and  _455
REMARK  191  A    between atoms: _455  and  _456
REMARK  192  A    between atoms: _455  and  _458
REMARK  193  A    between atoms: _458  and  _459
REMARK  194  A    between atoms: _462  and  _464
REMARK  195  A    between atoms: _464  and  _465
REMARK  196  A    between atoms: _464  and  _467
REMARK  197  A    between atoms: _470  and  _472
REMARK  198  A    between atoms: _472  and  _473
REMARK  199  A    between atoms: _472  and  _475
REMARK  200  A    between atoms: _475  and  _476
REMARK  201  A    between atoms: _480  and  _481
REMARK  202  A    between atoms: _486  and  _488
REMARK  203  A    between atoms: _488  and  _489
REMARK  204  A    between atoms: _488  and  _491
REMARK  205  A    between atoms: _491  and  _492
REMARK  206  A    between atoms: _496  and  _497
REMARK  207  A    between atoms: _502  and  _504
REMARK  208  A    between atoms: _504  and  _505
REMARK  209  A    between atoms: _504  and  _507
REMARK  210  A    between atoms: _510  and  _512
REMARK  211  A    between atoms: _512  and  _513
REMARK  212  A    between atoms: _512  and  _515
REMARK  213  A    between atoms: _515  and  _516
REMARK  214  A    between atoms: _521  and  _523
REMARK  215  A    between atoms: _523  and  _524
REMARK  216  A    between atoms: _523  and  _526
REMARK  217  A    between atoms: _526  and  _527
REMARK  218  A    between atoms: _530  and  _532
REMARK  219  A    between atoms: _532  and  _533
REMARK  220  A    between atoms: _532  and  _535
REMARK  221  A    between atoms: _535  and  _536
REMARK  222  A    between atoms: _539  and  _541
REMARK  223  A    between atoms: _541  and  _542
REMARK  224  A    between atoms: _544  and  _546
REMARK  225  A    between atoms: _546  and  _547
REMARK  226  A    between atoms: _546  and  _549
REMARK  227  A    between atoms: _549  and  _550
REMARK  228  A    between atoms: _550  and  _551
REMARK  229  A    between atoms: _551  and  _552
REMARK                            x       y       z     vdW  Elec       q    Type
REMARK                         _______ _______ _______ _____ _____    ______ ____
ROOT
ATOM      1  O   HOH     1      20.510  16.283  -3.514  0.00  0.00    +0.000 OA
ENDROOT
TORSDOF 0
REMARK  Name = ../refined-set-2016/1ec2/1ec2_pocket.pdb
REMARK  229 active torsions:
REMARK  status: ('A' for Active; 'I' for Inactive)
REMARK    1  A    between atoms: _1  and  _3
REMARK    2  A    between atoms: _3  and  _4
REMARK    3  A    between atoms: _3  and  _6
REMARK    4  A    between atoms: _6  and  _7
REMARK    5  A    between atoms: _7  and  _8
REMARK    6  A    between atoms: _8  and  _9
REMARK    7  A    between atoms: _18  and  _20
REMARK    8  A    between atoms: _20  and  _21
REMARK    9  A    between atoms: _20  and  _23
REMARK   10  A    between atoms: _23  and  _24
REMARK   11  A    between atoms: _27  and  _29
REMARK   12  A    between atoms: _29  and  _30
REMARK   13  A    between atoms: _29  and  _32
REMARK   14  A    between atoms: _32  and  _33
REMARK   15  A    between atoms: _36  and  _38
REMARK   16  A    between atoms: _38  and  _39
REMARK   17  A    between atoms: _38  and  _41
REMARK   18  A    between atoms: _41  and  _42
REMARK   19  A    between atoms: _45  and  _47
REMARK   20  A    between atoms: _47  and  _48
REMARK   21  A    between atoms: _47  and  _50
REMARK   22  A    between atoms: _50  and  _51
REMARK   23  A    between atoms: _54  and  _56
REMARK   24  A    between atoms: _56  and  _57
REMARK   25  A    between atoms: _59  and  _61
REMARK   26  A    between atoms: _61  and  _62
REMARK   27  A    between atoms: _65  and  _67
REMARK   28  A    between atoms: _67  and  _68
REMARK   29  A    between atoms: _67  and  _70
REMARK   30  A    between atoms: _70  and  _71
REMARK   31  A    between atoms: _74  and  _76
REMARK   32  A    between atoms: _76  and  _77
REMARK   33  A    between atoms: _76  and  _79
REMARK   34  A    between atoms: _79  and  _80
REMARK   35  A    between atoms: _83  and  _85
REMARK   36  A    between atoms: _85  and  _86
REMARK   37  A    between atoms: _85  and  _88
REMARK   38  A    between atoms: _88  and  _89
REMARK   39  A    between atoms: _92  and  _94
REMARK   40  A    between atoms: _94  and  _95
REMARK   41  A    between atoms: _94  and  _97
REMARK   42  A    between atoms: _100  and  _102
REMARK   43  A    between atoms: _102  and  _103
REMARK   44  A    between atoms: _102  and  _105
REMARK   45  A    between atoms: _105  and  _106
REMARK   46  A    between atoms: _106  and  _107
REMARK   47  A    between atoms: _107  and  _108
REMARK   48  A    between atoms: _108  and  _109
REMARK   49  A    between atoms: _113  and  _115
REMARK   50  A    between atoms: _115  and  _116
REMARK   51  A    between atoms: _115  and  _118
REMARK   52  A    between atoms: _118  and  _119
REMARK   53  A    between atoms: _119  and  _120
REMARK   54  A    between atoms: _122  and  _124
REMARK   55  A    between atoms: _124  and  _125
REMARK   56  A    between atoms: _124  and  _127
REMARK   57  A    between atoms: _127  and  _128
REMARK   58  A    between atoms: _131  and  _133
REMARK   59  A    between atoms: _133  and  _134
REMARK   60  A    between atoms: _136  and  _138
REMARK   61  A    between atoms: _138  and  _139
REMARK   62  A    between atoms: _141  and  _143
REMARK   63  A    between atoms: _143  and  _144
REMARK   64  A    between atoms: _143  and  _146
REMARK   65  A    between atoms: _146  and  _147
REMARK   66  A    between atoms: _150  and  _152
REMARK   67  A    between atoms: _152  and  _153
REMARK   68  A    between atoms: _155  and  _157
REMARK   69  A    between atoms: _157  and  _158
REMARK   70  A    between atoms: _160  and  _162
REMARK   71  A    between atoms: _162  and  _163
REMARK   72  A    between atoms: _162  and  _165
REMARK   73  A    between atoms: _165  and  _166
REMARK   74  A    between atoms: _172  and  _174
REMARK   75  A    between atoms: _174  and  _175
REMARK   76  A    between atoms: _174  and  _177
REMARK   77  A    between atoms: _177  and  _178
REMARK   78  A    between atoms: _181  and  _183
REMARK   79  A    between atoms: _183  and  _184
REMARK   80  A    between atoms: _183  and  _186
REMARK   81  A    between atoms: _189  and  _191
REMARK   82  A    between atoms: _191  and  _192
REMARK   83  A    between atoms: _191  and  _194
REMARK   84  A    between atoms: _194  and  _195
REMARK   85  A    between atoms: _198  and  _200
REMARK   86  A    between atoms: _200  and  _201
REMARK   87  A    between atoms: _200  and  _203
REMARK   88  A    between atoms: _203  and  _204
REMARK   89  A    between atoms: _208  and  _209
REMARK   90  A    between atoms: _214  and  _216
REMARK   91  A    between atoms: _216  and  _217
REMARK   92  A    between atoms: _216  and  _219
REMARK   93  A    between atoms: _222  and  _224
REMARK   94  A    between atoms: _224  and  _225
REMARK   95  A    between atoms: _224  and  _227
REMARK   96  A    between atoms: _227  and  _228
REMARK   97  A    between atoms: _233  and  _235
REMARK   98  A    between atoms: _235  and  _236
REMARK   99  A    between atoms: _235  and  _238
REMARK  100  A    between atoms: _238  and  _239
REMARK  101  A    between atoms: _242  and  _244
REMARK  102  A    between atoms: _244  and  _245
REMARK  103  A    between atoms: _244  and  _247
REMARK  104  A    between atoms: _247  and  _248
REMARK  105  A    between atoms: _251  and  _253
REMARK  106  A    between atoms: _253  and  _254
REMARK  107  A    between atoms: _256  and  _258
REMARK  108  A    between atoms: _258  and  _259
REMARK  109  A    between atoms: _258  and  _261
REMARK  110  A    between atoms: _261  and  _262
REMARK  111  A    between atoms: _262  and  _263
REMARK  112  A    between atoms: _263  and  _264
REMARK  113  A    between atoms: _273  and  _275
REMARK  114  A    between atoms: _275  and  _276
REMARK  115  A    between atoms: _275  and  _278
REMARK  116  A    between atoms: _278  and  _279
REMARK  117  A    between atoms: _279  and  _280
REMARK  118  A    between atoms: _280  and  _281
REMARK  119  A    between atoms: _290  and  _292
REMARK  120  A    between atoms: _292  and  _293
REMARK  121  A    between atoms: _292  and  _295
REMARK  122  A    between atoms: _295  and  _296
REMARK  123  A    between atoms: _299  and  _301
REMARK  124  A    between atoms: _301  and  _302
REMARK  125  A    between atoms: _301  and  _304
REMARK  126  A    between atoms: _304  and  _305
REMARK  127  A    between atoms: _308  and  _310
REMARK  128  A    between atoms: _310  and  _311
REMARK  129  A    between atoms: _310  and  _313
REMARK  130  A    between atoms: _313  and  _314
REMARK  131  A    between atoms: _317  and  _319
REMARK  132  A    between atoms: _319  and  _320
REMARK  133  A    between atoms: _319  and  _322
REMARK  134  A    between atoms: _322  and  _323
REMARK  135  A    between atoms: _326  and  _328
REMARK  136  A    between atoms: _328  and  _329
REMARK  137  A    between atoms: _328  and  _331
REMARK  138  A    between atoms: _331  and  _332
REMARK  139  A    between atoms: _335  and  _337
REMARK  140  A    between atoms: _337  and  _338
REMARK  141  A    between atoms: _340  and  _342
REMARK  142  A    between atoms: _342  and  _343
REMARK  143  A    between atoms: _346  and  _348
REMARK  144  A    between atoms: _348  and  _349
REMARK  145  A    between atoms: _348  and  _351
REMARK  146  A    between atoms: _351  and  _352
REMARK  147  A    between atoms: _355  and  _357
REMARK  148  A    between atoms: _357  and  _358
REMARK  149  A    between atoms: _357  and  _360
REMARK  150  A    between atoms: _360  and  _361
REMARK  151  A    between atoms: _364  and  _366
REMARK  152  A    between atoms: _366  and  _367
REMARK  153  A    between atoms: _366  and  _369
REMARK  154  A    between atoms: _369  and  _370
REMARK  155  A    between atoms: _373  and  _375
REMARK  156  A    between atoms: _375  and  _376
REMARK  157  A    between atoms: _375  and  _378
REMARK  158  A    between atoms: _381  and  _383
REMARK  159  A    between atoms: _383  and  _384
REMARK  160  A    between atoms: _383  and  _386
REMARK  161  A    between atoms: _386  and  _387
REMARK  162  A    between atoms: _387  and  _388
REMARK  163  A    between atoms: _388  and  _389
REMARK  164  A    between atoms: _389  and  _390
REMARK  165  A    between atoms: _394  and  _396
REMARK  166  A    between atoms: _396  and  _397
REMARK  167  A    between atoms: _396  and  _399
REMARK  168  A    between atoms: _399  and  _400
REMARK  169  A    between atoms: _400  and  _401
REMARK  170  A    between atoms: _403  and  _405
REMARK  171  A    between atoms: _405  and  _406
REMARK  172  A    between atoms: _405  and  _408
REMARK  173  A    between atoms: _408  and  _409
REMARK  174  A    between atoms: _412  and  _414
REMARK  175  A    between atoms: _414  and  _415
REMARK  176  A    between atoms: _417  and  _419
REMARK  177  A    between atoms: _419  and  _420
REMARK  178  A    between atoms: _422  and  _424
REMARK  179  A    between atoms: _424  and  _425
REMARK  180  A    between atoms: _424  and  _427
REMARK  181  A    between atoms: _427  and  _428
REMARK  182  A    between atoms: _431  and  _433
REMARK  183  A    between atoms: _433  and  _434
REMARK  184  A    between atoms: _436  and  _438
REMARK  185  A    between atoms: _438  and  _439
REMARK  186  A    between atoms: _441  and  _443
REMARK  187  A    between atoms: _443  and  _444
REMARK  188  A    between atoms: _443  and  _446
REMARK  189  A    between atoms: _446  and  _447
REMARK  190  A    between atoms: _453  and  _455
REMARK  191  A    between atoms: _455  and  _456
REMARK  192  A    between atoms: _455  and  _458
REMARK  193  A    between atoms: _458  and  _459
REMARK  194  A    between atoms: _462  and  _464
REMARK  195  A    between atoms: _464  and  _465
REMARK  196  A    between atoms: _464  and  _467
REMARK  197  A    between atoms: _470  and  _472
REMARK  198  A    between atoms: _472  and  _473
REMARK  199  A    between atoms: _472  and  _475
REMARK  200  A    between atoms: _475  and  _476
REMARK  201  A    between atoms: _480  and  _481
REMARK  202  A    between atoms: _486  and  _488
REMARK  203  A    between atoms: _488  and  _489
REMARK  204  A    between atoms: _488  and  _491
REMARK  205  A    between atoms: _491  and  _492
REMARK  206  A    between atoms: _496  and  _497
REMARK  207  A    between atoms: _502  and  _504
REMARK  208  A    between atoms: _504  and  _505
REMARK  209  A    between atoms: _504  and  _507
REMARK  210  A    between atoms: _510  and  _512
REMARK  211  A    between atoms: _512  and  _513
REMARK  212  A    between atoms: _512  and  _515
REMARK  213  A    between atoms: _515  and  _516
REMARK  214  A    between atoms: _521  and  _523
REMARK  215  A    between atoms: _523  and  _524
REMARK  216  A    between atoms: _523  and  _526
REMARK  217  A    between atoms: _526  and  _527
REMARK  218  A    between atoms: _530  and  _532
REMARK  219  A    between atoms: _532  and  _533
REMARK  220  A    between atoms: _532  and  _535
REMARK  221  A    between atoms: _535  and  _536
REMARK  222  A    between atoms: _539  and  _541
REMARK  223  A    between atoms: _541  and  _542
REMARK  224  A    between atoms: _544  and  _546
REMARK  225  A    between atoms: _546  and  _547
REMARK  226  A    between atoms: _546  and  _549
REMARK  227  A    between atoms: _549  and  _550
REMARK  228  A    between atoms: _550  and  _551
REMARK  229  A    between atoms: _551  and  _552
REMARK                            x       y       z     vdW  Elec       q    Type
REMARK                         _______ _______ _______ _____ _____    ______ ____
ROOT
ATOM      1  O   HOH     1      18.464  14.844   6.478  0.00  0.00    +0.000 OA
ENDROOT
TORSDOF 0
REMARK  Name = ../refined-set-2016/1ec2/1ec2_pocket.pdb
REMARK  229 active torsions:
REMARK  status: ('A' for Active; 'I' for Inactive)
REMARK    1  A    between atoms: _1  and  _3
REMARK    2  A    between atoms: _3  and  _4
REMARK    3  A    between atoms: _3  and  _6
REMARK    4  A    between atoms: _6  and  _7
REMARK    5  A    between atoms: _7  and  _8
REMARK    6  A    between atoms: _8  and  _9
REMARK    7  A    between atoms: _18  and  _20
REMARK    8  A    between atoms: _20  and  _21
REMARK    9  A    between atoms: _20  and  _23
REMARK   10  A    between atoms: _23  and  _24
REMARK   11  A    between atoms: _27  and  _29
REMARK   12  A    between atoms: _29  and  _30
REMARK   13  A    between atoms: _29  and  _32
REMARK   14  A    between atoms: _32  and  _33
REMARK   15  A    between atoms: _36  and  _38
REMARK   16  A    between atoms: _38  and  _39
REMARK   17  A    between atoms: _38  and  _41
REMARK   18  A    between atoms: _41  and  _42
REMARK   19  A    between atoms: _45  and  _47
REMARK   20  A    between atoms: _47  and  _48
REMARK   21  A    between atoms: _47  and  _50
REMARK   22  A    between atoms: _50  and  _51
REMARK   23  A    between atoms: _54  and  _56
REMARK   24  A    between atoms: _56  and  _57
REMARK   25  A    between atoms: _59  and  _61
REMARK   26  A    between atoms: _61  and  _62
REMARK   27  A    between atoms: _65  and  _67
REMARK   28  A    between atoms: _67  and  _68
REMARK   29  A    between atoms: _67  and  _70
REMARK   30  A    between atoms: _70  and  _71
REMARK   31  A    between atoms: _74  and  _76
REMARK   32  A    between atoms: _76  and  _77
REMARK   33  A    between atoms: _76  and  _79
REMARK   34  A    between atoms: _79  and  _80
REMARK   35  A    between atoms: _83  and  _85
REMARK   36  A    between atoms: _85  and  _86
REMARK   37  A    between atoms: _85  and  _88
REMARK   38  A    between atoms: _88  and  _89
REMARK   39  A    between atoms: _92  and  _94
REMARK   40  A    between atoms: _94  and  _95
REMARK   41  A    between atoms: _94  and  _97
REMARK   42  A    between atoms: _100  and  _102
REMARK   43  A    between atoms: _102  and  _103
REMARK   44  A    between atoms: _102  and  _105
REMARK   45  A    between atoms: _105  and  _106
REMARK   46  A    between atoms: _106  and  _107
REMARK   47  A    between atoms: _107  and  _108
REMARK   48  A    between atoms: _108  and  _109
REMARK   49  A    between atoms: _113  and  _115
REMARK   50  A    between atoms: _115  and  _116
REMARK   51  A    between atoms: _115  and  _118
REMARK   52  A    between atoms: _118  and  _119
REMARK   53  A    between atoms: _119  and  _120
REMARK   54  A    between atoms: _122  and  _124
REMARK   55  A    between atoms: _124  and  _125
REMARK   56  A    between atoms: _124  and  _127
REMARK   57  A    between atoms: _127  and  _128
REMARK   58  A    between atoms: _131  and  _133
REMARK   59  A    between atoms: _133  and  _134
REMARK   60  A    between atoms: _136  and  _138
REMARK   61  A    between atoms: _138  and  _139
REMARK   62  A    between atoms: _141  and  _143
REMARK   63  A    between atoms: _143  and  _144
REMARK   64  A    between atoms: _143  and  _146
REMARK   65  A    between atoms: _146  and  _147
REMARK   66  A    between atoms: _150  and  _152
REMARK   67  A    between atoms: _152  and  _153
REMARK   68  A    between atoms: _155  and  _157
REMARK   69  A    between atoms: _157  and  _158
REMARK   70  A    between atoms: _160  and  _162
REMARK   71  A    between atoms: _162  and  _163
REMARK   72  A    between atoms: _162  and  _165
REMARK   73  A    between atoms: _165  and  _166
REMARK   74  A    between atoms: _172  and  _174
REMARK   75  A    between atoms: _174  and  _175
REMARK   76  A    between atoms: _174  and  _177
REMARK   77  A    between atoms: _177  and  _178
REMARK   78  A    between atoms: _181  and  _183
REMARK   79  A    between atoms: _183  and  _184
REMARK   80  A    between atoms: _183  and  _186
REMARK   81  A    between atoms: _189  and  _191
REMARK   82  A    between atoms: _191  and  _192
REMARK   83  A    between atoms: _191  and  _194
REMARK   84  A    between atoms: _194  and  _195
REMARK   85  A    between atoms: _198  and  _200
REMARK   86  A    between atoms: _200  and  _201
REMARK   87  A    between atoms: _200  and  _203
REMARK   88  A    between atoms: _203  and  _204
REMARK   89  A    between atoms: _208  and  _209
REMARK   90  A    between atoms: _214  and  _216
REMARK   91  A    between atoms: _216  and  _217
REMARK   92  A    between atoms: _216  and  _219
REMARK   93  A    between atoms: _222  and  _224
REMARK   94  A    between atoms: _224  and  _225
REMARK   95  A    between atoms: _224  and  _227
REMARK   96  A    between atoms: _227  and  _228
REMARK   97  A    between atoms: _233  and  _235
REMARK   98  A    between atoms: _235  and  _236
REMARK   99  A    between atoms: _235  and  _238
REMARK  100  A    between atoms: _238  and  _239
REMARK  101  A    between atoms: _242  and  _244
REMARK  102  A    between atoms: _244  and  _245
REMARK  103  A    between atoms: _244  and  _247
REMARK  104  A    between atoms: _247  and  _248
REMARK  105  A    between atoms: _251  and  _253
REMARK  106  A    between atoms: _253  and  _254
REMARK  107  A    between atoms: _256  and  _258
REMARK  108  A    between atoms: _258  and  _259
REMARK  109  A    between atoms: _258  and  _261
REMARK  110  A    between atoms: _261  and  _262
REMARK  111  A    between atoms: _262  and  _263
REMARK  112  A    between atoms: _263  and  _264
REMARK  113  A    between atoms: _273  and  _275
REMARK  114  A    between atoms: _275  and  _276
REMARK  115  A    between atoms: _275  and  _278
REMARK  116  A    between atoms: _278  and  _279
REMARK  117  A    between atoms: _279  and  _280
REMARK  118  A    between atoms: _280  and  _281
REMARK  119  A    between atoms: _290  and  _292
REMARK  120  A    between atoms: _292  and  _293
REMARK  121  A    between atoms: _292  and  _295
REMARK  122  A    between atoms: _295  and  _296
REMARK  123  A    between atoms: _299  and  _301
REMARK  124  A    between atoms: _301  and  _302
REMARK  125  A    between atoms: _301  and  _304
REMARK  126  A    between atoms: _304  and  _305
REMARK  127  A    between atoms: _308  and  _310
REMARK  128  A    between atoms: _310  and  _311
REMARK  129  A    between atoms: _310  and  _313
REMARK  130  A    between atoms: _313  and  _314
REMARK  131  A    between atoms: _317  and  _319
REMARK  132  A    between atoms: _319  and  _320
REMARK  133  A    between atoms: _319  and  _322
REMARK  134  A    between atoms: _322  and  _323
REMARK  135  A    between atoms: _326  and  _328
REMARK  136  A    between atoms: _328  and  _329
REMARK  137  A    between atoms: _328  and  _331
REMARK  138  A    between atoms: _331  and  _332
REMARK  139  A    between atoms: _335  and  _337
REMARK  140  A    between atoms: _337  and  _338
REMARK  141  A    between atoms: _340  and  _342
REMARK  142  A    between atoms: _342  and  _343
REMARK  143  A    between atoms: _346  and  _348
REMARK  144  A    between atoms: _348  and  _349
REMARK  145  A    between atoms: _348  and  _351
REMARK  146  A    between atoms: _351  and  _352
REMARK  147  A    between atoms: _355  and  _357
REMARK  148  A    between atoms: _357  and  _358
REMARK  149  A    between atoms: _357  and  _360
REMARK  150  A    between atoms: _360  and  _361
REMARK  151  A    between atoms: _364  and  _366
REMARK  152  A    between atoms: _366  and  _367
REMARK  153  A    between atoms: _366  and  _369
REMARK  154  A    between atoms: _369  and  _370
REMARK  155  A    between atoms: _373  and  _375
REMARK  156  A    between atoms: _375  and  _376
REMARK  157  A    between atoms: _375  and  _378
REMARK  158  A    between atoms: _381  and  _383
REMARK  159  A    between atoms: _383  and  _384
REMARK  160  A    between atoms: _383  and  _386
REMARK  161  A    between atoms: _386  and  _387
REMARK  162  A    between atoms: _387  and  _388
REMARK  163  A    between atoms: _388  and  _389
REMARK  164  A    between atoms: _389  and  _390
REMARK  165  A    between atoms: _394  and  _396
REMARK  166  A    between atoms: _396  and  _397
REMARK  167  A    between atoms: _396  and  _399
REMARK  168  A    between atoms: _399  and  _400
REMARK  169  A    between atoms: _400  and  _401
REMARK  170  A    between atoms: _403  and  _405
REMARK  171  A    between atoms: _405  and  _406
REMARK  172  A    between atoms: _405  and  _408
REMARK  173  A    between atoms: _408  and  _409
REMARK  174  A    between atoms: _412  and  _414
REMARK  175  A    between atoms: _414  and  _415
REMARK  176  A    between atoms: _417  and  _419
REMARK  177  A    between atoms: _419  and  _420
REMARK  178  A    between atoms: _422  and  _424
REMARK  179  A    between atoms: _424  and  _425
REMARK  180  A    between atoms: _424  and  _427
REMARK  181  A    between atoms: _427  and  _428
REMARK  182  A    between atoms: _431  and  _433
REMARK  183  A    between atoms: _433  and  _434
REMARK  184  A    between atoms: _436  and  _438
REMARK  185  A    between atoms: _438  and  _439
REMARK  186  A    between atoms: _441  and  _443
REMARK  187  A    between atoms: _443  and  _444
REMARK  188  A    between atoms: _443  and  _446
REMARK  189  A    between atoms: _446  and  _447
REMARK  190  A    between atoms: _453  and  _455
REMARK  191  A    between atoms: _455  and  _456
REMARK  192  A    between atoms: _455  and  _458
REMARK  193  A    between atoms: _458  and  _459
REMARK  194  A    between atoms: _462  and  _464
REMARK  195  A    between atoms: _464  and  _465
REMARK  196  A    between atoms: _464  and  _467
REMARK  197  A    between atoms: _470  and  _472
REMARK  198  A    between atoms: _472  and  _473
REMARK  199  A    between atoms: _472  and  _475
REMARK  200  A    between atoms: _475  and  _476
REMARK  201  A    between atoms: _480  and  _481
REMARK  202  A    between atoms: _486  and  _488
REMARK  203  A    between atoms: _488  and  _489
REMARK  204  A    between atoms: _488  and  _491
REMARK  205  A    between atoms: _491  and  _492
REMARK  206  A    between atoms: _496  and  _497
REMARK  207  A    between atoms: _502  and  _504
REMARK  208  A    between atoms: _504  and  _505
REMARK  209  A    between atoms: _504  and  _507
REMARK  210  A    between atoms: _510  and  _512
REMARK  211  A    between atoms: _512  and  _513
REMARK  212  A    between atoms: _512  and  _515
REMARK  213  A    between atoms: _515  and  _516
REMARK  214  A    between atoms: _521  and  _523
REMARK  215  A    between atoms: _523  and  _524
REMARK  216  A    between atoms: _523  and  _526
REMARK  217  A    between atoms: _526  and  _527
REMARK  218  A    between atoms: _530  and  _532
REMARK  219  A    between atoms: _532  and  _533
REMARK  220  A    between atoms: _532  and  _535
REMARK  221  A    between atoms: _535  and  _536
REMARK  222  A    between atoms: _539  and  _541
REMARK  223  A    between atoms: _541  and  _542
REMARK  224  A    between atoms: _544  and  _546
REMARK  225  A    between atoms: _546  and  _547
REMARK  226  A    between atoms: _546  and  _549
REMARK  227  A    between atoms: _549  and  _550
REMARK  228  A    between atoms: _550  and  _551
REMARK  229  A    between atoms: _551  and  _552
REMARK                            x       y       z     vdW  Elec       q    Type
REMARK                         _______ _______ _______ _____ _____    ______ ____
ROOT
ATOM      1  O   HOH     1       6.193  26.825  -5.600  0.00  0.00    +0.000 OA
ENDROOT
TORSDOF 0
REMARK  Name = ../refined-set-2016/1ec2/1ec2_pocket.pdb
REMARK  229 active torsions:
REMARK  status: ('A' for Active; 'I' for Inactive)
REMARK    1  A    between atoms: _1  and  _3
REMARK    2  A    between atoms: _3  and  _4
REMARK    3  A    between atoms: _3  and  _6
REMARK    4  A    between atoms: _6  and  _7
REMARK    5  A    between atoms: _7  and  _8
REMARK    6  A    between atoms: _8  and  _9
REMARK    7  A    between atoms: _18  and  _20
REMARK    8  A    between atoms: _20  and  _21
REMARK    9  A    between atoms: _20  and  _23
REMARK   10  A    between atoms: _23  and  _24
REMARK   11  A    between atoms: _27  and  _29
REMARK   12  A    between atoms: _29  and  _30
REMARK   13  A    between atoms: _29  and  _32
REMARK   14  A    between atoms: _32  and  _33
REMARK   15  A    between atoms: _36  and  _38
REMARK   16  A    between atoms: _38  and  _39
REMARK   17  A    between atoms: _38  and  _41
REMARK   18  A    between atoms: _41  and  _42
REMARK   19  A    between atoms: _45  and  _47
REMARK   20  A    between atoms: _47  and  _48
REMARK   21  A    between atoms: _47  and  _50
REMARK   22  A    between atoms: _50  and  _51
REMARK   23  A    between atoms: _54  and  _56
REMARK   24  A    between atoms: _56  and  _57
REMARK   25  A    between atoms: _59  and  _61
REMARK   26  A    between atoms: _61  and  _62
REMARK   27  A    between atoms: _65  and  _67
REMARK   28  A    between atoms: _67  and  _68
REMARK   29  A    between atoms: _67  and  _70
REMARK   30  A    between atoms: _70  and  _71
REMARK   31  A    between atoms: _74  and  _76
REMARK   32  A    between atoms: _76  and  _77
REMARK   33  A    between atoms: _76  and  _79
REMARK   34  A    between atoms: _79  and  _80
REMARK   35  A    between atoms: _83  and  _85
REMARK   36  A    between atoms: _85  and  _86
REMARK   37  A    between atoms: _85  and  _88
REMARK   38  A    between atoms: _88  and  _89
REMARK   39  A    between atoms: _92  and  _94
REMARK   40  A    between atoms: _94  and  _95
REMARK   41  A    between atoms: _94  and  _97
REMARK   42  A    between atoms: _100  and  _102
REMARK   43  A    between atoms: _102  and  _103
REMARK   44  A    between atoms: _102  and  _105
REMARK   45  A    between atoms: _105  and  _106
REMARK   46  A    between atoms: _106  and  _107
REMARK   47  A    between atoms: _107  and  _108
REMARK   48  A    between atoms: _108  and  _109
REMARK   49  A    between atoms: _113  and  _115
REMARK   50  A    between atoms: _115  and  _116
REMARK   51  A    between atoms: _115  and  _118
REMARK   52  A    between atoms: _118  and  _119
REMARK   53  A    between atoms: _119  and  _120
REMARK   54  A    between atoms: _122  and  _124
REMARK   55  A    between atoms: _124  and  _125
REMARK   56  A    between atoms: _124  and  _127
REMARK   57  A    between atoms: _127  and  _128
REMARK   58  A    between atoms: _131  and  _133
REMARK   59  A    between atoms: _133  and  _134
REMARK   60  A    between atoms: _136  and  _138
REMARK   61  A    between atoms: _138  and  _139
REMARK   62  A    between atoms: _141  and  _143
REMARK   63  A    between atoms: _143  and  _144
REMARK   64  A    between atoms: _143  and  _146
REMARK   65  A    between atoms: _146  and  _147
REMARK   66  A    between atoms: _150  and  _152
REMARK   67  A    between atoms: _152  and  _153
REMARK   68  A    between atoms: _155  and  _157
REMARK   69  A    between atoms: _157  and  _158
REMARK   70  A    between atoms: _160  and  _162
REMARK   71  A    between atoms: _162  and  _163
REMARK   72  A    between atoms: _162  and  _165
REMARK   73  A    between atoms: _165  and  _166
REMARK   74  A    between atoms: _172  and  _174
REMARK   75  A    between atoms: _174  and  _175
REMARK   76  A    between atoms: _174  and  _177
REMARK   77  A    between atoms: _177  and  _178
REMARK   78  A    between atoms: _181  and  _183
REMARK   79  A    between atoms: _183  and  _184
REMARK   80  A    between atoms: _183  and  _186
REMARK   81  A    between atoms: _189  and  _191
REMARK   82  A    between atoms: _191  and  _192
REMARK   83  A    between atoms: _191  and  _194
REMARK   84  A    between atoms: _194  and  _195
REMARK   85  A    between atoms: _198  and  _200
REMARK   86  A    between atoms: _200  and  _201
REMARK   87  A    between atoms: _200  and  _203
REMARK   88  A    between atoms: _203  and  _204
REMARK   89  A    between atoms: _208  and  _209
REMARK   90  A    between atoms: _214  and  _216
REMARK   91  A    between atoms: _216  and  _217
REMARK   92  A    between atoms: _216  and  _219
REMARK   93  A    between atoms: _222  and  _224
REMARK   94  A    between atoms: _224  and  _225
REMARK   95  A    between atoms: _224  and  _227
REMARK   96  A    between atoms: _227  and  _228
REMARK   97  A    between atoms: _233  and  _235
REMARK   98  A    between atoms: _235  and  _236
REMARK   99  A    between atoms: _235  and  _238
REMARK  100  A    between atoms: _238  and  _239
REMARK  101  A    between atoms: _242  and  _244
REMARK  102  A    between atoms: _244  and  _245
REMARK  103  A    between atoms: _244  and  _247
REMARK  104  A    between atoms: _247  and  _248
REMARK  105  A    between atoms: _251  and  _253
REMARK  106  A    between atoms: _253  and  _254
REMARK  107  A    between atoms: _256  and  _258
REMARK  108  A    between atoms: _258  and  _259
REMARK  109  A    between atoms: _258  and  _261
REMARK  110  A    between atoms: _261  and  _262
REMARK  111  A    between atoms: _262  and  _263
REMARK  112  A    between atoms: _263  and  _264
REMARK  113  A    between atoms: _273  and  _275
REMARK  114  A    between atoms: _275  and  _276
REMARK  115  A    between atoms: _275  and  _278
REMARK  116  A    between atoms: _278  and  _279
REMARK  117  A    between atoms: _279  and  _280
REMARK  118  A    between atoms: _280  and  _281
REMARK  119  A    between atoms: _290  and  _292
REMARK  120  A    between atoms: _292  and  _293
REMARK  121  A    between atoms: _292  and  _295
REMARK  122  A    between atoms: _295  and  _296
REMARK  123  A    between atoms: _299  and  _301
REMARK  124  A    between atoms: _301  and  _302
REMARK  125  A    between atoms: _301  and  _304
REMARK  126  A    between atoms: _304  and  _305
REMARK  127  A    between atoms: _308  and  _310
REMARK  128  A    between atoms: _310  and  _311
REMARK  129  A    between atoms: _310  and  _313
REMARK  130  A    between atoms: _313  and  _314
REMARK  131  A    between atoms: _317  and  _319
REMARK  132  A    between atoms: _319  and  _320
REMARK  133  A    between atoms: _319  and  _322
REMARK  134  A    between atoms: _322  and  _323
REMARK  135  A    between atoms: _326  and  _328
REMARK  136  A    between atoms: _328  and  _329
REMARK  137  A    between atoms: _328  and  _331
REMARK  138  A    between atoms: _331  and  _332
REMARK  139  A    between atoms: _335  and  _337
REMARK  140  A    between atoms: _337  and  _338
REMARK  141  A    between atoms: _340  and  _342
REMARK  142  A    between atoms: _342  and  _343
REMARK  143  A    between atoms: _346  and  _348
REMARK  144  A    between atoms: _348  and  _349
REMARK  145  A    between atoms: _348  and  _351
REMARK  146  A    between atoms: _351  and  _352
REMARK  147  A    between atoms: _355  and  _357
REMARK  148  A    between atoms: _357  and  _358
REMARK  149  A    between atoms: _357  and  _360
REMARK  150  A    between atoms: _360  and  _361
REMARK  151  A    between atoms: _364  and  _366
REMARK  152  A    between atoms: _366  and  _367
REMARK  153  A    between atoms: _366  and  _369
REMARK  154  A    between atoms: _369  and  _370
REMARK  155  A    between atoms: _373  and  _375
REMARK  156  A    between atoms: _375  and  _376
REMARK  157  A    between atoms: _375  and  _378
REMARK  158  A    between atoms: _381  and  _383
REMARK  159  A    between atoms: _383  and  _384
REMARK  160  A    between atoms: _383  and  _386
REMARK  161  A    between atoms: _386  and  _387
REMARK  162  A    between atoms: _387  and  _388
REMARK  163  A    between atoms: _388  and  _389
REMARK  164  A    between atoms: _389  and  _390
REMARK  165  A    between atoms: _394  and  _396
REMARK  166  A    between atoms: _396  and  _397
REMARK  167  A    between atoms: _396  and  _399
REMARK  168  A    between atoms: _399  and  _400
REMARK  169  A    between atoms: _400  and  _401
REMARK  170  A    between atoms: _403  and  _405
REMARK  171  A    between atoms: _405  and  _406
REMARK  172  A    between atoms: _405  and  _408
REMARK  173  A    between atoms: _408  and  _409
REMARK  174  A    between atoms: _412  and  _414
REMARK  175  A    between atoms: _414  and  _415
REMARK  176  A    between atoms: _417  and  _419
REMARK  177  A    between atoms: _419  and  _420
REMARK  178  A    between atoms: _422  and  _424
REMARK  179  A    between atoms: _424  and  _425
REMARK  180  A    between atoms: _424  and  _427
REMARK  181  A    between atoms: _427  and  _428
REMARK  182  A    between atoms: _431  and  _433
REMARK  183  A    between atoms: _433  and  _434
REMARK  184  A    between atoms: _436  and  _438
REMARK  185  A    between atoms: _438  and  _439
REMARK  186  A    between atoms: _441  and  _443
REMARK  187  A    between atoms: _443  and  _444
REMARK  188  A    between atoms: _443  and  _446
REMARK  189  A    between atoms: _446  and  _447
REMARK  190  A    between atoms: _453  and  _455
REMARK  191  A    between atoms: _455  and  _456
REMARK  192  A    between atoms: _455  and  _458
REMARK  193  A    between atoms: _458  and  _459
REMARK  194  A    between atoms: _462  and  _464
REMARK  195  A    between atoms: _464  and  _465
REMARK  196  A    between atoms: _464  and  _467
REMARK  197  A    between atoms: _470  and  _472
REMARK  198  A    between atoms: _472  and  _473
REMARK  199  A    between atoms: _472  and  _475
REMARK  200  A    between atoms: _475  and  _476
REMARK  201  A    between atoms: _480  and  _481
REMARK  202  A    between atoms: _486  and  _488
REMARK  203  A    between atoms: _488  and  _489
REMARK  204  A    between atoms: _488  and  _491
REMARK  205  A    between atoms: _491  and  _492
REMARK  206  A    between atoms: _496  and  _497
REMARK  207  A    between atoms: _502  and  _504
REMARK  208  A    between atoms: _504  and  _505
REMARK  209  A    between atoms: _504  and  _507
REMARK  210  A    between atoms: _510  and  _512
REMARK  211  A    between atoms: _512  and  _513
REMARK  212  A    between atoms: _512  and  _515
REMARK  213  A    between atoms: _515  and  _516
REMARK  214  A    between atoms: _521  and  _523
REMARK  215  A    between atoms: _523  and  _524
REMARK  216  A    between atoms: _523  and  _526
REMARK  217  A    between atoms: _526  and  _527
REMARK  218  A    between atoms: _530  and  _532
REMARK  219  A    between atoms: _532  and  _533
REMARK  220  A    between atoms: _532  and  _535
REMARK  221  A    between atoms: _535  and  _536
REMARK  222  A    between atoms: _539  and  _541
REMARK  223  A    between atoms: _541  and  _542
REMARK  224  A    between atoms: _544  and  _546
REMARK  225  A    between atoms: _546  and  _547
REMARK  226  A    between atoms: _546  and  _549
REMARK  227  A    between atoms: _549  and  _550
REMARK  228  A    between atoms: _550  and  _551
REMARK  229  A    between atoms: _551  and  _552
REMARK                            x       y       z     vdW  Elec       q    Type
REMARK                         _______ _______ _______ _____ _____    ______ ____
ROOT
ATOM      1  O   HOH     1      21.249  15.022   8.288  0.00  0.00    +0.000 OA
ENDROOT
TORSDOF 0
REMARK  Name = ../refined-set-2016/1ec2/1ec2_pocket.pdb
REMARK  229 active torsions:
REMARK  status: ('A' for Active; 'I' for Inactive)
REMARK    1  A    between atoms: _1  and  _3
REMARK    2  A    between atoms: _3  and  _4
REMARK    3  A    between atoms: _3  and  _6
REMARK    4  A    between atoms: _6  and  _7
REMARK    5  A    between atoms: _7  and  _8
REMARK    6  A    between atoms: _8  and  _9
REMARK    7  A    between atoms: _18  and  _20
REMARK    8  A    between atoms: _20  and  _21
REMARK    9  A    between atoms: _20  and  _23
REMARK   10  A    between atoms: _23  and  _24
REMARK   11  A    between atoms: _27  and  _29
REMARK   12  A    between atoms: _29  and  _30
REMARK   13  A    between atoms: _29  and  _32
REMARK   14  A    between atoms: _32  and  _33
REMARK   15  A    between atoms: _36  and  _38
REMARK   16  A    between atoms: _38  and  _39
REMARK   17  A    between atoms: _38  and  _41
REMARK   18  A    between atoms: _41  and  _42
REMARK   19  A    between atoms: _45  and  _47
REMARK   20  A    between atoms: _47  and  _48
REMARK   21  A    between atoms: _47  and  _50
REMARK   22  A    between atoms: _50  and  _51
REMARK   23  A    between atoms: _54  and  _56
REMARK   24  A    between atoms: _56  and  _57
REMARK   25  A    between atoms: _59  and  _61
REMARK   26  A    between atoms: _61  and  _62
REMARK   27  A    between atoms: _65  and  _67
REMARK   28  A    between atoms: _67  and  _68
REMARK   29  A    between atoms: _67  and  _70
REMARK   30  A    between atoms: _70  and  _71
REMARK   31  A    between atoms: _74  and  _76
REMARK   32  A    between atoms: _76  and  _77
REMARK   33  A    between atoms: _76  and  _79
REMARK   34  A    between atoms: _79  and  _80
REMARK   35  A    between atoms: _83  and  _85
REMARK   36  A    between atoms: _85  and  _86
REMARK   37  A    between atoms: _85  and  _88
REMARK   38  A    between atoms: _88  and  _89
REMARK   39  A    between atoms: _92  and  _94
REMARK   40  A    between atoms: _94  and  _95
REMARK   41  A    between atoms: _94  and  _97
REMARK   42  A    between atoms: _100  and  _102
REMARK   43  A    between atoms: _102  and  _103
REMARK   44  A    between atoms: _102  and  _105
REMARK   45  A    between atoms: _105  and  _106
REMARK   46  A    between atoms: _106  and  _107
REMARK   47  A    between atoms: _107  and  _108
REMARK   48  A    between atoms: _108  and  _109
REMARK   49  A    between atoms: _113  and  _115
REMARK   50  A    between atoms: _115  and  _116
REMARK   51  A    between atoms: _115  and  _118
REMARK   52  A    between atoms: _118  and  _119
REMARK   53  A    between atoms: _119  and  _120
REMARK   54  A    between atoms: _122  and  _124
REMARK   55  A    between atoms: _124  and  _125
REMARK   56  A    between atoms: _124  and  _127
REMARK   57  A    between atoms: _127  and  _128
REMARK   58  A    between atoms: _131  and  _133
REMARK   59  A    between atoms: _133  and  _134
REMARK   60  A    between atoms: _136  and  _138
REMARK   61  A    between atoms: _138  and  _139
REMARK   62  A    between atoms: _141  and  _143
REMARK   63  A    between atoms: _143  and  _144
REMARK   64  A    between atoms: _143  and  _146
REMARK   65  A    between atoms: _146  and  _147
REMARK   66  A    between atoms: _150  and  _152
REMARK   67  A    between atoms: _152  and  _153
REMARK   68  A    between atoms: _155  and  _157
REMARK   69  A    between atoms: _157  and  _158
REMARK   70  A    between atoms: _160  and  _162
REMARK   71  A    between atoms: _162  and  _163
REMARK   72  A    between atoms: _162  and  _165
REMARK   73  A    between atoms: _165  and  _166
REMARK   74  A    between atoms: _172  and  _174
REMARK   75  A    between atoms: _174  and  _175
REMARK   76  A    between atoms: _174  and  _177
REMARK   77  A    between atoms: _177  and  _178
REMARK   78  A    between atoms: _181  and  _183
REMARK   79  A    between atoms: _183  and  _184
REMARK   80  A    between atoms: _183  and  _186
REMARK   81  A    between atoms: _189  and  _191
REMARK   82  A    between atoms: _191  and  _192
REMARK   83  A    between atoms: _191  and  _194
REMARK   84  A    between atoms: _194  and  _195
REMARK   85  A    between atoms: _198  and  _200
REMARK   86  A    between atoms: _200  and  _201
REMARK   87  A    between atoms: _200  and  _203
REMARK   88  A    between atoms: _203  and  _204
REMARK   89  A    between atoms: _208  and  _209
REMARK   90  A    between atoms: _214  and  _216
REMARK   91  A    between atoms: _216  and  _217
REMARK   92  A    between atoms: _216  and  _219
REMARK   93  A    between atoms: _222  and  _224
REMARK   94  A    between atoms: _224  and  _225
REMARK   95  A    between atoms: _224  and  _227
REMARK   96  A    between atoms: _227  and  _228
REMARK   97  A    between atoms: _233  and  _235
REMARK   98  A    between atoms: _235  and  _236
REMARK   99  A    between atoms: _235  and  _238
REMARK  100  A    between atoms: _238  and  _239
REMARK  101  A    between atoms: _242  and  _244
REMARK  102  A    between atoms: _244  and  _245
REMARK  103  A    between atoms: _244  and  _247
REMARK  104  A    between atoms: _247  and  _248
REMARK  105  A    between atoms: _251  and  _253
REMARK  106  A    between atoms: _253  and  _254
REMARK  107  A    between atoms: _256  and  _258
REMARK  108  A    between atoms: _258  and  _259
REMARK  109  A    between atoms: _258  and  _261
REMARK  110  A    between atoms: _261  and  _262
REMARK  111  A    between atoms: _262  and  _263
REMARK  112  A    between atoms: _263  and  _264
REMARK  113  A    between atoms: _273  and  _275
REMARK  114  A    between atoms: _275  and  _276
REMARK  115  A    between atoms: _275  and  _278
REMARK  116  A    between atoms: _278  and  _279
REMARK  117  A    between atoms: _279  and  _280
REMARK  118  A    between atoms: _280  and  _281
REMARK  119  A    between atoms: _290  and  _292
REMARK  120  A    between atoms: _292  and  _293
REMARK  121  A    between atoms: _292  and  _295
REMARK  122  A    between atoms: _295  and  _296
REMARK  123  A    between atoms: _299  and  _301
REMARK  124  A    between atoms: _301  and  _302
REMARK  125  A    between atoms: _301  and  _304
REMARK  126  A    between atoms: _304  and  _305
REMARK  127  A    between atoms: _308  and  _310
REMARK  128  A    between atoms: _310  and  _311
REMARK  129  A    between atoms: _310  and  _313
REMARK  130  A    between atoms: _313  and  _314
REMARK  131  A    between atoms: _317  and  _319
REMARK  132  A    between atoms: _319  and  _320
REMARK  133  A    between atoms: _319  and  _322
REMARK  134  A    between atoms: _322  and  _323
REMARK  135  A    between atoms: _326  and  _328
REMARK  136  A    between atoms: _328  and  _329
REMARK  137  A    between atoms: _328  and  _331
REMARK  138  A    between atoms: _331  and  _332
REMARK  139  A    between atoms: _335  and  _337
REMARK  140  A    between atoms: _337  and  _338
REMARK  141  A    between atoms: _340  and  _342
REMARK  142  A    between atoms: _342  and  _343
REMARK  143  A    between atoms: _346  and  _348
REMARK  144  A    between atoms: _348  and  _349
REMARK  145  A    between atoms: _348  and  _351
REMARK  146  A    between atoms: _351  and  _352
REMARK  147  A    between atoms: _355  and  _357
REMARK  148  A    between atoms: _357  and  _358
REMARK  149  A    between atoms: _357  and  _360
REMARK  150  A    between atoms: _360  and  _361
REMARK  151  A    between atoms: _364  and  _366
REMARK  152  A    between atoms: _366  and  _367
REMARK  153  A    between atoms: _366  and  _369
REMARK  154  A    between atoms: _369  and  _370
REMARK  155  A    between atoms: _373  and  _375
REMARK  156  A    between atoms: _375  and  _376
REMARK  157  A    between atoms: _375  and  _378
REMARK  158  A    between atoms: _381  and  _383
REMARK  159  A    between atoms: _383  and  _384
REMARK  160  A    between atoms: _383  and  _386
REMARK  161  A    between atoms: _386  and  _387
REMARK  162  A    between atoms: _387  and  _388
REMARK  163  A    between atoms: _388  and  _389
REMARK  164  A    between atoms: _389  and  _390
REMARK  165  A    between atoms: _394  and  _396
REMARK  166  A    between atoms: _396  and  _397
REMARK  167  A    between atoms: _396  and  _399
REMARK  168  A    between atoms: _399  and  _400
REMARK  169  A    between atoms: _400  and  _401
REMARK  170  A    between atoms: _403  and  _405
REMARK  171  A    between atoms: _405  and  _406
REMARK  172  A    between atoms: _405  and  _408
REMARK  173  A    between atoms: _408  and  _409
REMARK  174  A    between atoms: _412  and  _414
REMARK  175  A    between atoms: _414  and  _415
REMARK  176  A    between atoms: _417  and  _419
REMARK  177  A    between atoms: _419  and  _420
REMARK  178  A    between atoms: _422  and  _424
REMARK  179  A    between atoms: _424  and  _425
REMARK  180  A    between atoms: _424  and  _427
REMARK  181  A    between atoms: _427  and  _428
REMARK  182  A    between atoms: _431  and  _433
REMARK  183  A    between atoms: _433  and  _434
REMARK  184  A    between atoms: _436  and  _438
REMARK  185  A    between atoms: _438  and  _439
REMARK  186  A    between atoms: _441  and  _443
REMARK  187  A    between atoms: _443  and  _444
REMARK  188  A    between atoms: _443  and  _446
REMARK  189  A    between atoms: _446  and  _447
REMARK  190  A    between atoms: _453  and  _455
REMARK  191  A    between atoms: _455  and  _456
REMARK  192  A    between atoms: _455  and  _458
REMARK  193  A    between atoms: _458  and  _459
REMARK  194  A    between atoms: _462  and  _464
REMARK  195  A    between atoms: _464  and  _465
REMARK  196  A    between atoms: _464  and  _467
REMARK  197  A    between atoms: _470  and  _472
REMARK  198  A    between atoms: _472  and  _473
REMARK  199  A    between atoms: _472  and  _475
REMARK  200  A    between atoms: _475  and  _476
REMARK  201  A    between atoms: _480  and  _481
REMARK  202  A    between atoms: _486  and  _488
REMARK  203  A    between atoms: _488  and  _489
REMARK  204  A    between atoms: _488  and  _491
REMARK  205  A    between atoms: _491  and  _492
REMARK  206  A    between atoms: _496  and  _497
REMARK  207  A    between atoms: _502  and  _504
REMARK  208  A    between atoms: _504  and  _505
REMARK  209  A    between atoms: _504  and  _507
REMARK  210  A    between atoms: _510  and  _512
REMARK  211  A    between atoms: _512  and  _513
REMARK  212  A    between atoms: _512  and  _515
REMARK  213  A    between atoms: _515  and  _516
REMARK  214  A    between atoms: _521  and  _523
REMARK  215  A    between atoms: _523  and  _524
REMARK  216  A    between atoms: _523  and  _526
REMARK  217  A    between atoms: _526  and  _527
REMARK  218  A    between atoms: _530  and  _532
REMARK  219  A    between atoms: _532  and  _533
REMARK  220  A    between atoms: _532  and  _535
REMARK  221  A    between atoms: _535  and  _536
REMARK  222  A    between atoms: _539  and  _541
REMARK  223  A    between atoms: _541  and  _542
REMARK  224  A    between atoms: _544  and  _546
REMARK  225  A    between atoms: _546  and  _547
REMARK  226  A    between atoms: _546  and  _549
REMARK  227  A    between atoms: _549  and  _550
REMARK  228  A    between atoms: _550  and  _551
REMARK  229  A    between atoms: _551  and  _552
REMARK                            x       y       z     vdW  Elec       q    Type
REMARK                         _______ _______ _______ _____ _____    ______ ____
ROOT
ATOM      1  O   HOH     1       2.714  28.190   2.036  0.00  0.00    +0.000 OA
ENDROOT
TORSDOF 0
REMARK  Name = ../refined-set-2016/1ec2/1ec2_pocket.pdb
REMARK  229 active torsions:
REMARK  status: ('A' for Active; 'I' for Inactive)
REMARK    1  A    between atoms: _1  and  _3
REMARK    2  A    between atoms: _3  and  _4
REMARK    3  A    between atoms: _3  and  _6
REMARK    4  A    between atoms: _6  and  _7
REMARK    5  A    between atoms: _7  and  _8
REMARK    6  A    between atoms: _8  and  _9
REMARK    7  A    between atoms: _18  and  _20
REMARK    8  A    between atoms: _20  and  _21
REMARK    9  A    between atoms: _20  and  _23
REMARK   10  A    between atoms: _23  and  _24
REMARK   11  A    between atoms: _27  and  _29
REMARK   12  A    between atoms: _29  and  _30
REMARK   13  A    between atoms: _29  and  _32
REMARK   14  A    between atoms: _32  and  _33
REMARK   15  A    between atoms: _36  and  _38
REMARK   16  A    between atoms: _38  and  _39
REMARK   17  A    between atoms: _38  and  _41
REMARK   18  A    between atoms: _41  and  _42
REMARK   19  A    between atoms: _45  and  _47
REMARK   20  A    between atoms: _47  and  _48
REMARK   21  A    between atoms: _47  and  _50
REMARK   22  A    between atoms: _50  and  _51
REMARK   23  A    between atoms: _54  and  _56
REMARK   24  A    between atoms: _56  and  _57
REMARK   25  A    between atoms: _59  and  _61
REMARK   26  A    between atoms: _61  and  _62
REMARK   27  A    between atoms: _65  and  _67
REMARK   28  A    between atoms: _67  and  _68
REMARK   29  A    between atoms: _67  and  _70
REMARK   30  A    between atoms: _70  and  _71
REMARK   31  A    between atoms: _74  and  _76
REMARK   32  A    between atoms: _76  and  _77
REMARK   33  A    between atoms: _76  and  _79
REMARK   34  A    between atoms: _79  and  _80
REMARK   35  A    between atoms: _83  and  _85
REMARK   36  A    between atoms: _85  and  _86
REMARK   37  A    between atoms: _85  and  _88
REMARK   38  A    between atoms: _88  and  _89
REMARK   39  A    between atoms: _92  and  _94
REMARK   40  A    between atoms: _94  and  _95
REMARK   41  A    between atoms: _94  and  _97
REMARK   42  A    between atoms: _100  and  _102
REMARK   43  A    between atoms: _102  and  _103
REMARK   44  A    between atoms: _102  and  _105
REMARK   45  A    between atoms: _105  and  _106
REMARK   46  A    between atoms: _106  and  _107
REMARK   47  A    between atoms: _107  and  _108
REMARK   48  A    between atoms: _108  and  _109
REMARK   49  A    between atoms: _113  and  _115
REMARK   50  A    between atoms: _115  and  _116
REMARK   51  A    between atoms: _115  and  _118
REMARK   52  A    between atoms: _118  and  _119
REMARK   53  A    between atoms: _119  and  _120
REMARK   54  A    between atoms: _122  and  _124
REMARK   55  A    between atoms: _124  and  _125
REMARK   56  A    between atoms: _124  and  _127
REMARK   57  A    between atoms: _127  and  _128
REMARK   58  A    between atoms: _131  and  _133
REMARK   59  A    between atoms: _133  and  _134
REMARK   60  A    between atoms: _136  and  _138
REMARK   61  A    between atoms: _138  and  _139
REMARK   62  A    between atoms: _141  and  _143
REMARK   63  A    between atoms: _143  and  _144
REMARK   64  A    between atoms: _143  and  _146
REMARK   65  A    between atoms: _146  and  _147
REMARK   66  A    between atoms: _150  and  _152
REMARK   67  A    between atoms: _152  and  _153
REMARK   68  A    between atoms: _155  and  _157
REMARK   69  A    between atoms: _157  and  _158
REMARK   70  A    between atoms: _160  and  _162
REMARK   71  A    between atoms: _162  and  _163
REMARK   72  A    between atoms: _162  and  _165
REMARK   73  A    between atoms: _165  and  _166
REMARK   74  A    between atoms: _172  and  _174
REMARK   75  A    between atoms: _174  and  _175
REMARK   76  A    between atoms: _174  and  _177
REMARK   77  A    between atoms: _177  and  _178
REMARK   78  A    between atoms: _181  and  _183
REMARK   79  A    between atoms: _183  and  _184
REMARK   80  A    between atoms: _183  and  _186
REMARK   81  A    between atoms: _189  and  _191
REMARK   82  A    between atoms: _191  and  _192
REMARK   83  A    between atoms: _191  and  _194
REMARK   84  A    between atoms: _194  and  _195
REMARK   85  A    between atoms: _198  and  _200
REMARK   86  A    between atoms: _200  and  _201
REMARK   87  A    between atoms: _200  and  _203
REMARK   88  A    between atoms: _203  and  _204
REMARK   89  A    between atoms: _208  and  _209
REMARK   90  A    between atoms: _214  and  _216
REMARK   91  A    between atoms: _216  and  _217
REMARK   92  A    between atoms: _216  and  _219
REMARK   93  A    between atoms: _222  and  _224
REMARK   94  A    between atoms: _224  and  _225
REMARK   95  A    between atoms: _224  and  _227
REMARK   96  A    between atoms: _227  and  _228
REMARK   97  A    between atoms: _233  and  _235
REMARK   98  A    between atoms: _235  and  _236
REMARK   99  A    between atoms: _235  and  _238
REMARK  100  A    between atoms: _238  and  _239
REMARK  101  A    between atoms: _242  and  _244
REMARK  102  A    between atoms: _244  and  _245
REMARK  103  A    between atoms: _244  and  _247
REMARK  104  A    between atoms: _247  and  _248
REMARK  105  A    between atoms: _251  and  _253
REMARK  106  A    between atoms: _253  and  _254
REMARK  107  A    between atoms: _256  and  _258
REMARK  108  A    between atoms: _258  and  _259
REMARK  109  A    between atoms: _258  and  _261
REMARK  110  A    between atoms: _261  and  _262
REMARK  111  A    between atoms: _262  and  _263
REMARK  112  A    between atoms: _263  and  _264
REMARK  113  A    between atoms: _273  and  _275
REMARK  114  A    between atoms: _275  and  _276
REMARK  115  A    between atoms: _275  and  _278
REMARK  116  A    between atoms: _278  and  _279
REMARK  117  A    between atoms: _279  and  _280
REMARK  118  A    between atoms: _280  and  _281
REMARK  119  A    between atoms: _290  and  _292
REMARK  120  A    between atoms: _292  and  _293
REMARK  121  A    between atoms: _292  and  _295
REMARK  122  A    between atoms: _295  and  _296
REMARK  123  A    between atoms: _299  and  _301
REMARK  124  A    between atoms: _301  and  _302
REMARK  125  A    between atoms: _301  and  _304
REMARK  126  A    between atoms: _304  and  _305
REMARK  127  A    between atoms: _308  and  _310
REMARK  128  A    between atoms: _310  and  _311
REMARK  129  A    between atoms: _310  and  _313
REMARK  130  A    between atoms: _313  and  _314
REMARK  131  A    between atoms: _317  and  _319
REMARK  132  A    between atoms: _319  and  _320
REMARK  133  A    between atoms: _319  and  _322
REMARK  134  A    between atoms: _322  and  _323
REMARK  135  A    between atoms: _326  and  _328
REMARK  136  A    between atoms: _328  and  _329
REMARK  137  A    between atoms: _328  and  _331
REMARK  138  A    between atoms: _331  and  _332
REMARK  139  A    between atoms: _335  and  _337
REMARK  140  A    between atoms: _337  and  _338
REMARK  141  A    between atoms: _340  and  _342
REMARK  142  A    between atoms: _342  and  _343
REMARK  143  A    between atoms: _346  and  _348
REMARK  144  A    between atoms: _348  and  _349
REMARK  145  A    between atoms: _348  and  _351
REMARK  146  A    between atoms: _351  and  _352
REMARK  147  A    between atoms: _355  and  _357
REMARK  148  A    between atoms: _357  and  _358
REMARK  149  A    between atoms: _357  and  _360
REMARK  150  A    between atoms: _360  and  _361
REMARK  151  A    between atoms: _364  and  _366
REMARK  152  A    between atoms: _366  and  _367
REMARK  153  A    between atoms: _366  and  _369
REMARK  154  A    between atoms: _369  and  _370
REMARK  155  A    between atoms: _373  and  _375
REMARK  156  A    between atoms: _375  and  _376
REMARK  157  A    between atoms: _375  and  _378
REMARK  158  A    between atoms: _381  and  _383
REMARK  159  A    between atoms: _383  and  _384
REMARK  160  A    between atoms: _383  and  _386
REMARK  161  A    between atoms: _386  and  _387
REMARK  162  A    between atoms: _387  and  _388
REMARK  163  A    between atoms: _388  and  _389
REMARK  164  A    between atoms: _389  and  _390
REMARK  165  A    between atoms: _394  and  _396
REMARK  166  A    between atoms: _396  and  _397
REMARK  167  A    between atoms: _396  and  _399
REMARK  168  A    between atoms: _399  and  _400
REMARK  169  A    between atoms: _400  and  _401
REMARK  170  A    between atoms: _403  and  _405
REMARK  171  A    between atoms: _405  and  _406
REMARK  172  A    between atoms: _405  and  _408
REMARK  173  A    between atoms: _408  and  _409
REMARK  174  A    between atoms: _412  and  _414
REMARK  175  A    between atoms: _414  and  _415
REMARK  176  A    between atoms: _417  and  _419
REMARK  177  A    between atoms: _419  and  _420
REMARK  178  A    between atoms: _422  and  _424
REMARK  179  A    between atoms: _424  and  _425
REMARK  180  A    between atoms: _424  and  _427
REMARK  181  A    between atoms: _427  and  _428
REMARK  182  A    between atoms: _431  and  _433
REMARK  183  A    between atoms: _433  and  _434
REMARK  184  A    between atoms: _436  and  _438
REMARK  185  A    between atoms: _438  and  _439
REMARK  186  A    between atoms: _441  and  _443
REMARK  187  A    between atoms: _443  and  _444
REMARK  188  A    between atoms: _443  and  _446
REMARK  189  A    between atoms: _446  and  _447
REMARK  190  A    between atoms: _453  and  _455
REMARK  191  A    between atoms: _455  and  _456
REMARK  192  A    between atoms: _455  and  _458
REMARK  193  A    between atoms: _458  and  _459
REMARK  194  A    between atoms: _462  and  _464
REMARK  195  A    between atoms: _464  and  _465
REMARK  196  A    between atoms: _464  and  _467
REMARK  197  A    between atoms: _470  and  _472
REMARK  198  A    between atoms: _472  and  _473
REMARK  199  A    between atoms: _472  and  _475
REMARK  200  A    between atoms: _475  and  _476
REMARK  201  A    between atoms: _480  and  _481
REMARK  202  A    between atoms: _486  and  _488
REMARK  203  A    between atoms: _488  and  _489
REMARK  204  A    between atoms: _488  and  _491
REMARK  205  A    between atoms: _491  and  _492
REMARK  206  A    between atoms: _496  and  _497
REMARK  207  A    between atoms: _502  and  _504
REMARK  208  A    between atoms: _504  and  _505
REMARK  209  A    between atoms: _504  and  _507
REMARK  210  A    between atoms: _510  and  _512
REMARK  211  A    between atoms: _512  and  _513
REMARK  212  A    between atoms: _512  and  _515
REMARK  213  A    between atoms: _515  and  _516
REMARK  214  A    between atoms: _521  and  _523
REMARK  215  A    between atoms: _523  and  _524
REMARK  216  A    between atoms: _523  and  _526
REMARK  217  A    between atoms: _526  and  _527
REMARK  218  A    between atoms: _530  and  _532
REMARK  219  A    between atoms: _532  and  _533
REMARK  220  A    between atoms: _532  and  _535
REMARK  221  A    between atoms: _535  and  _536
REMARK  222  A    between atoms: _539  and  _541
REMARK  223  A    between atoms: _541  and  _542
REMARK  224  A    between atoms: _544  and  _546
REMARK  225  A    between atoms: _546  and  _547
REMARK  226  A    between atoms: _546  and  _549
REMARK  227  A    between atoms: _549  and  _550
REMARK  228  A    between atoms: _550  and  _551
REMARK  229  A    between atoms: _551  and  _552
REMARK                            x       y       z     vdW  Elec       q    Type
REMARK                         _______ _______ _______ _____ _____    ______ ____
ROOT
ATOM      1  O   HOH     1      14.289  16.017  11.428  0.00  0.00    +0.000 OA
ENDROOT
TORSDOF 0
REMARK  Name = ../refined-set-2016/1ec2/1ec2_pocket.pdb
REMARK  229 active torsions:
REMARK  status: ('A' for Active; 'I' for Inactive)
REMARK    1  A    between atoms: _1  and  _3
REMARK    2  A    between atoms: _3  and  _4
REMARK    3  A    between atoms: _3  and  _6
REMARK    4  A    between atoms: _6  and  _7
REMARK    5  A    between atoms: _7  and  _8
REMARK    6  A    between atoms: _8  and  _9
REMARK    7  A    between atoms: _18  and  _20
REMARK    8  A    between atoms: _20  and  _21
REMARK    9  A    between atoms: _20  and  _23
REMARK   10  A    between atoms: _23  and  _24
REMARK   11  A    between atoms: _27  and  _29
REMARK   12  A    between atoms: _29  and  _30
REMARK   13  A    between atoms: _29  and  _32
REMARK   14  A    between atoms: _32  and  _33
REMARK   15  A    between atoms: _36  and  _38
REMARK   16  A    between atoms: _38  and  _39
REMARK   17  A    between atoms: _38  and  _41
REMARK   18  A    between atoms: _41  and  _42
REMARK   19  A    between atoms: _45  and  _47
REMARK   20  A    between atoms: _47  and  _48
REMARK   21  A    between atoms: _47  and  _50
REMARK   22  A    between atoms: _50  and  _51
REMARK   23  A    between atoms: _54  and  _56
REMARK   24  A    between atoms: _56  and  _57
REMARK   25  A    between atoms: _59  and  _61
REMARK   26  A    between atoms: _61  and  _62
REMARK   27  A    between atoms: _65  and  _67
REMARK   28  A    between atoms: _67  and  _68
REMARK   29  A    between atoms: _67  and  _70
REMARK   30  A    between atoms: _70  and  _71
REMARK   31  A    between atoms: _74  and  _76
REMARK   32  A    between atoms: _76  and  _77
REMARK   33  A    between atoms: _76  and  _79
REMARK   34  A    between atoms: _79  and  _80
REMARK   35  A    between atoms: _83  and  _85
REMARK   36  A    between atoms: _85  and  _86
REMARK   37  A    between atoms: _85  and  _88
REMARK   38  A    between atoms: _88  and  _89
REMARK   39  A    between atoms: _92  and  _94
REMARK   40  A    between atoms: _94  and  _95
REMARK   41  A    between atoms: _94  and  _97
REMARK   42  A    between atoms: _100  and  _102
REMARK   43  A    between atoms: _102  and  _103
REMARK   44  A    between atoms: _102  and  _105
REMARK   45  A    between atoms: _105  and  _106
REMARK   46  A    between atoms: _106  and  _107
REMARK   47  A    between atoms: _107  and  _108
REMARK   48  A    between atoms: _108  and  _109
REMARK   49  A    between atoms: _113  and  _115
REMARK   50  A    between atoms: _115  and  _116
REMARK   51  A    between atoms: _115  and  _118
REMARK   52  A    between atoms: _118  and  _119
REMARK   53  A    between atoms: _119  and  _120
REMARK   54  A    between atoms: _122  and  _124
REMARK   55  A    between atoms: _124  and  _125
REMARK   56  A    between atoms: _124  and  _127
REMARK   57  A    between atoms: _127  and  _128
REMARK   58  A    between atoms: _131  and  _133
REMARK   59  A    between atoms: _133  and  _134
REMARK   60  A    between atoms: _136  and  _138
REMARK   61  A    between atoms: _138  and  _139
REMARK   62  A    between atoms: _141  and  _143
REMARK   63  A    between atoms: _143  and  _144
REMARK   64  A    between atoms: _143  and  _146
REMARK   65  A    between atoms: _146  and  _147
REMARK   66  A    between atoms: _150  and  _152
REMARK   67  A    between atoms: _152  and  _153
REMARK   68  A    between atoms: _155  and  _157
REMARK   69  A    between atoms: _157  and  _158
REMARK   70  A    between atoms: _160  and  _162
REMARK   71  A    between atoms: _162  and  _163
REMARK   72  A    between atoms: _162  and  _165
REMARK   73  A    between atoms: _165  and  _166
REMARK   74  A    between atoms: _172  and  _174
REMARK   75  A    between atoms: _174  and  _175
REMARK   76  A    between atoms: _174  and  _177
REMARK   77  A    between atoms: _177  and  _178
REMARK   78  A    between atoms: _181  and  _183
REMARK   79  A    between atoms: _183  and  _184
REMARK   80  A    between atoms: _183  and  _186
REMARK   81  A    between atoms: _189  and  _191
REMARK   82  A    between atoms: _191  and  _192
REMARK   83  A    between atoms: _191  and  _194
REMARK   84  A    between atoms: _194  and  _195
REMARK   85  A    between atoms: _198  and  _200
REMARK   86  A    between atoms: _200  and  _201
REMARK   87  A    between atoms: _200  and  _203
REMARK   88  A    between atoms: _203  and  _204
REMARK   89  A    between atoms: _208  and  _209
REMARK   90  A    between atoms: _214  and  _216
REMARK   91  A    between atoms: _216  and  _217
REMARK   92  A    between atoms: _216  and  _219
REMARK   93  A    between atoms: _222  and  _224
REMARK   94  A    between atoms: _224  and  _225
REMARK   95  A    between atoms: _224  and  _227
REMARK   96  A    between atoms: _227  and  _228
REMARK   97  A    between atoms: _233  and  _235
REMARK   98  A    between atoms: _235  and  _236
REMARK   99  A    between atoms: _235  and  _238
REMARK  100  A    between atoms: _238  and  _239
REMARK  101  A    between atoms: _242  and  _244
REMARK  102  A    between atoms: _244  and  _245
REMARK  103  A    between atoms: _244  and  _247
REMARK  104  A    between atoms: _247  and  _248
REMARK  105  A    between atoms: _251  and  _253
REMARK  106  A    between atoms: _253  and  _254
REMARK  107  A    between atoms: _256  and  _258
REMARK  108  A    between atoms: _258  and  _259
REMARK  109  A    between atoms: _258  and  _261
REMARK  110  A    between atoms: _261  and  _262
REMARK  111  A    between atoms: _262  and  _263
REMARK  112  A    between atoms: _263  and  _264
REMARK  113  A    between atoms: _273  and  _275
REMARK  114  A    between atoms: _275  and  _276
REMARK  115  A    between atoms: _275  and  _278
REMARK  116  A    between atoms: _278  and  _279
REMARK  117  A    between atoms: _279  and  _280
REMARK  118  A    between atoms: _280  and  _281
REMARK  119  A    between atoms: _290  and  _292
REMARK  120  A    between atoms: _292  and  _293
REMARK  121  A    between atoms: _292  and  _295
REMARK  122  A    between atoms: _295  and  _296
REMARK  123  A    between atoms: _299  and  _301
REMARK  124  A    between atoms: _301  and  _302
REMARK  125  A    between atoms: _301  and  _304
REMARK  126  A    between atoms: _304  and  _305
REMARK  127  A    between atoms: _308  and  _310
REMARK  128  A    between atoms: _310  and  _311
REMARK  129  A    between atoms: _310  and  _313
REMARK  130  A    between atoms: _313  and  _314
REMARK  131  A    between atoms: _317  and  _319
REMARK  132  A    between atoms: _319  and  _320
REMARK  133  A    between atoms: _319  and  _322
REMARK  134  A    between atoms: _322  and  _323
REMARK  135  A    between atoms: _326  and  _328
REMARK  136  A    between atoms: _328  and  _329
REMARK  137  A    between atoms: _328  and  _331
REMARK  138  A    between atoms: _331  and  _332
REMARK  139  A    between atoms: _335  and  _337
REMARK  140  A    between atoms: _337  and  _338
REMARK  141  A    between atoms: _340  and  _342
REMARK  142  A    between atoms: _342  and  _343
REMARK  143  A    between atoms: _346  and  _348
REMARK  144  A    between atoms: _348  and  _349
REMARK  145  A    between atoms: _348  and  _351
REMARK  146  A    between atoms: _351  and  _352
REMARK  147  A    between atoms: _355  and  _357
REMARK  148  A    between atoms: _357  and  _358
REMARK  149  A    between atoms: _357  and  _360
REMARK  150  A    between atoms: _360  and  _361
REMARK  151  A    between atoms: _364  and  _366
REMARK  152  A    between atoms: _366  and  _367
REMARK  153  A    between atoms: _366  and  _369
REMARK  154  A    between atoms: _369  and  _370
REMARK  155  A    between atoms: _373  and  _375
REMARK  156  A    between atoms: _375  and  _376
REMARK  157  A    between atoms: _375  and  _378
REMARK  158  A    between atoms: _381  and  _383
REMARK  159  A    between atoms: _383  and  _384
REMARK  160  A    between atoms: _383  and  _386
REMARK  161  A    between atoms: _386  and  _387
REMARK  162  A    between atoms: _387  and  _388
REMARK  163  A    between atoms: _388  and  _389
REMARK  164  A    between atoms: _389  and  _390
REMARK  165  A    between atoms: _394  and  _396
REMARK  166  A    between atoms: _396  and  _397
REMARK  167  A    between atoms: _396  and  _399
REMARK  168  A    between atoms: _399  and  _400
REMARK  169  A    between atoms: _400  and  _401
REMARK  170  A    between atoms: _403  and  _405
REMARK  171  A    between atoms: _405  and  _406
REMARK  172  A    between atoms: _405  and  _408
REMARK  173  A    between atoms: _408  and  _409
REMARK  174  A    between atoms: _412  and  _414
REMARK  175  A    between atoms: _414  and  _415
REMARK  176  A    between atoms: _417  and  _419
REMARK  177  A    between atoms: _419  and  _420
REMARK  178  A    between atoms: _422  and  _424
REMARK  179  A    between atoms: _424  and  _425
REMARK  180  A    between atoms: _424  and  _427
REMARK  181  A    between atoms: _427  and  _428
REMARK  182  A    between atoms: _431  and  _433
REMARK  183  A    between atoms: _433  and  _434
REMARK  184  A    between atoms: _436  and  _438
REMARK  185  A    between atoms: _438  and  _439
REMARK  186  A    between atoms: _441  and  _443
REMARK  187  A    between atoms: _443  and  _444
REMARK  188  A    between atoms: _443  and  _446
REMARK  189  A    between atoms: _446  and  _447
REMARK  190  A    between atoms: _453  and  _455
REMARK  191  A    between atoms: _455  and  _456
REMARK  192  A    between atoms: _455  and  _458
REMARK  193  A    between atoms: _458  and  _459
REMARK  194  A    between atoms: _462  and  _464
REMARK  195  A    between atoms: _464  and  _465
REMARK  196  A    between atoms: _464  and  _467
REMARK  197  A    between atoms: _470  and  _472
REMARK  198  A    between atoms: _472  and  _473
REMARK  199  A    between atoms: _472  and  _475
REMARK  200  A    between atoms: _475  and  _476
REMARK  201  A    between atoms: _480  and  _481
REMARK  202  A    between atoms: _486  and  _488
REMARK  203  A    between atoms: _488  and  _489
REMARK  204  A    between atoms: _488  and  _491
REMARK  205  A    between atoms: _491  and  _492
REMARK  206  A    between atoms: _496  and  _497
REMARK  207  A    between atoms: _502  and  _504
REMARK  208  A    between atoms: _504  and  _505
REMARK  209  A    between atoms: _504  and  _507
REMARK  210  A    between atoms: _510  and  _512
REMARK  211  A    between atoms: _512  and  _513
REMARK  212  A    between atoms: _512  and  _515
REMARK  213  A    between atoms: _515  and  _516
REMARK  214  A    between atoms: _521  and  _523
REMARK  215  A    between atoms: _523  and  _524
REMARK  216  A    between atoms: _523  and  _526
REMARK  217  A    between atoms: _526  and  _527
REMARK  218  A    between atoms: _530  and  _532
REMARK  219  A    between atoms: _532  and  _533
REMARK  220  A    between atoms: _532  and  _535
REMARK  221  A    between atoms: _535  and  _536
REMARK  222  A    between atoms: _539  and  _541
REMARK  223  A    between atoms: _541  and  _542
REMARK  224  A    between atoms: _544  and  _546
REMARK  225  A    between atoms: _546  and  _547
REMARK  226  A    between atoms: _546  and  _549
REMARK  227  A    between atoms: _549  and  _550
REMARK  228  A    between atoms: _550  and  _551
REMARK  229  A    between atoms: _551  and  _552
REMARK                            x       y       z     vdW  Elec       q    Type
REMARK                         _______ _______ _______ _____ _____    ______ ____
ROOT
ATOM      1  O   HOH     1       4.577  33.100  -0.240  0.00  0.00    +0.000 OA
ENDROOT
TORSDOF 0
REMARK  Name = ../refined-set-2016/1ec2/1ec2_pocket.pdb
REMARK  229 active torsions:
REMARK  status: ('A' for Active; 'I' for Inactive)
REMARK    1  A    between atoms: _1  and  _3
REMARK    2  A    between atoms: _3  and  _4
REMARK    3  A    between atoms: _3  and  _6
REMARK    4  A    between atoms: _6  and  _7
REMARK    5  A    between atoms: _7  and  _8
REMARK    6  A    between atoms: _8  and  _9
REMARK    7  A    between atoms: _18  and  _20
REMARK    8  A    between atoms: _20  and  _21
REMARK    9  A    between atoms: _20  and  _23
REMARK   10  A    between atoms: _23  and  _24
REMARK   11  A    between atoms: _27  and  _29
REMARK   12  A    between atoms: _29  and  _30
REMARK   13  A    between atoms: _29  and  _32
REMARK   14  A    between atoms: _32  and  _33
REMARK   15  A    between atoms: _36  and  _38
REMARK   16  A    between atoms: _38  and  _39
REMARK   17  A    between atoms: _38  and  _41
REMARK   18  A    between atoms: _41  and  _42
REMARK   19  A    between atoms: _45  and  _47
REMARK   20  A    between atoms: _47  and  _48
REMARK   21  A    between atoms: _47  and  _50
REMARK   22  A    between atoms: _50  and  _51
REMARK   23  A    between atoms: _54  and  _56
REMARK   24  A    between atoms: _56  and  _57
REMARK   25  A    between atoms: _59  and  _61
REMARK   26  A    between atoms: _61  and  _62
REMARK   27  A    between atoms: _65  and  _67
REMARK   28  A    between atoms: _67  and  _68
REMARK   29  A    between atoms: _67  and  _70
REMARK   30  A    between atoms: _70  and  _71
REMARK   31  A    between atoms: _74  and  _76
REMARK   32  A    between atoms: _76  and  _77
REMARK   33  A    between atoms: _76  and  _79
REMARK   34  A    between atoms: _79  and  _80
REMARK   35  A    between atoms: _83  and  _85
REMARK   36  A    between atoms: _85  and  _86
REMARK   37  A    between atoms: _85  and  _88
REMARK   38  A    between atoms: _88  and  _89
REMARK   39  A    between atoms: _92  and  _94
REMARK   40  A    between atoms: _94  and  _95
REMARK   41  A    between atoms: _94  and  _97
REMARK   42  A    between atoms: _100  and  _102
REMARK   43  A    between atoms: _102  and  _103
REMARK   44  A    between atoms: _102  and  _105
REMARK   45  A    between atoms: _105  and  _106
REMARK   46  A    between atoms: _106  and  _107
REMARK   47  A    between atoms: _107  and  _108
REMARK   48  A    between atoms: _108  and  _109
REMARK   49  A    between atoms: _113  and  _115
REMARK   50  A    between atoms: _115  and  _116
REMARK   51  A    between atoms: _115  and  _118
REMARK   52  A    between atoms: _118  and  _119
REMARK   53  A    between atoms: _119  and  _120
REMARK   54  A    between atoms: _122  and  _124
REMARK   55  A    between atoms: _124  and  _125
REMARK   56  A    between atoms: _124  and  _127
REMARK   57  A    between atoms: _127  and  _128
REMARK   58  A    between atoms: _131  and  _133
REMARK   59  A    between atoms: _133  and  _134
REMARK   60  A    between atoms: _136  and  _138
REMARK   61  A    between atoms: _138  and  _139
REMARK   62  A    between atoms: _141  and  _143
REMARK   63  A    between atoms: _143  and  _144
REMARK   64  A    between atoms: _143  and  _146
REMARK   65  A    between atoms: _146  and  _147
REMARK   66  A    between atoms: _150  and  _152
REMARK   67  A    between atoms: _152  and  _153
REMARK   68  A    between atoms: _155  and  _157
REMARK   69  A    between atoms: _157  and  _158
REMARK   70  A    between atoms: _160  and  _162
REMARK   71  A    between atoms: _162  and  _163
REMARK   72  A    between atoms: _162  and  _165
REMARK   73  A    between atoms: _165  and  _166
REMARK   74  A    between atoms: _172  and  _174
REMARK   75  A    between atoms: _174  and  _175
REMARK   76  A    between atoms: _174  and  _177
REMARK   77  A    between atoms: _177  and  _178
REMARK   78  A    between atoms: _181  and  _183
REMARK   79  A    between atoms: _183  and  _184
REMARK   80  A    between atoms: _183  and  _186
REMARK   81  A    between atoms: _189  and  _191
REMARK   82  A    between atoms: _191  and  _192
REMARK   83  A    between atoms: _191  and  _194
REMARK   84  A    between atoms: _194  and  _195
REMARK   85  A    between atoms: _198  and  _200
REMARK   86  A    between atoms: _200  and  _201
REMARK   87  A    between atoms: _200  and  _203
REMARK   88  A    between atoms: _203  and  _204
REMARK   89  A    between atoms: _208  and  _209
REMARK   90  A    between atoms: _214  and  _216
REMARK   91  A    between atoms: _216  and  _217
REMARK   92  A    between atoms: _216  and  _219
REMARK   93  A    between atoms: _222  and  _224
REMARK   94  A    between atoms: _224  and  _225
REMARK   95  A    between atoms: _224  and  _227
REMARK   96  A    between atoms: _227  and  _228
REMARK   97  A    between atoms: _233  and  _235
REMARK   98  A    between atoms: _235  and  _236
REMARK   99  A    between atoms: _235  and  _238
REMARK  100  A    between atoms: _238  and  _239
REMARK  101  A    between atoms: _242  and  _244
REMARK  102  A    between atoms: _244  and  _245
REMARK  103  A    between atoms: _244  and  _247
REMARK  104  A    between atoms: _247  and  _248
REMARK  105  A    between atoms: _251  and  _253
REMARK  106  A    between atoms: _253  and  _254
REMARK  107  A    between atoms: _256  and  _258
REMARK  108  A    between atoms: _258  and  _259
REMARK  109  A    between atoms: _258  and  _261
REMARK  110  A    between atoms: _261  and  _262
REMARK  111  A    between atoms: _262  and  _263
REMARK  112  A    between atoms: _263  and  _264
REMARK  113  A    between atoms: _273  and  _275
REMARK  114  A    between atoms: _275  and  _276
REMARK  115  A    between atoms: _275  and  _278
REMARK  116  A    between atoms: _278  and  _279
REMARK  117  A    between atoms: _279  and  _280
REMARK  118  A    between atoms: _280  and  _281
REMARK  119  A    between atoms: _290  and  _292
REMARK  120  A    between atoms: _292  and  _293
REMARK  121  A    between atoms: _292  and  _295
REMARK  122  A    between atoms: _295  and  _296
REMARK  123  A    between atoms: _299  and  _301
REMARK  124  A    between atoms: _301  and  _302
REMARK  125  A    between atoms: _301  and  _304
REMARK  126  A    between atoms: _304  and  _305
REMARK  127  A    between atoms: _308  and  _310
REMARK  128  A    between atoms: _310  and  _311
REMARK  129  A    between atoms: _310  and  _313
REMARK  130  A    between atoms: _313  and  _314
REMARK  131  A    between atoms: _317  and  _319
REMARK  132  A    between atoms: _319  and  _320
REMARK  133  A    between atoms: _319  and  _322
REMARK  134  A    between atoms: _322  and  _323
REMARK  135  A    between atoms: _326  and  _328
REMARK  136  A    between atoms: _328  and  _329
REMARK  137  A    between atoms: _328  and  _331
REMARK  138  A    between atoms: _331  and  _332
REMARK  139  A    between atoms: _335  and  _337
REMARK  140  A    between atoms: _337  and  _338
REMARK  141  A    between atoms: _340  and  _342
REMARK  142  A    between atoms: _342  and  _343
REMARK  143  A    between atoms: _346  and  _348
REMARK  144  A    between atoms: _348  and  _349
REMARK  145  A    between atoms: _348  and  _351
REMARK  146  A    between atoms: _351  and  _352
REMARK  147  A    between atoms: _355  and  _357
REMARK  148  A    between atoms: _357  and  _358
REMARK  149  A    between atoms: _357  and  _360
REMARK  150  A    between atoms: _360  and  _361
REMARK  151  A    between atoms: _364  and  _366
REMARK  152  A    between atoms: _366  and  _367
REMARK  153  A    between atoms: _366  and  _369
REMARK  154  A    between atoms: _369  and  _370
REMARK  155  A    between atoms: _373  and  _375
REMARK  156  A    between atoms: _375  and  _376
REMARK  157  A    between atoms: _375  and  _378
REMARK  158  A    between atoms: _381  and  _383
REMARK  159  A    between atoms: _383  and  _384
REMARK  160  A    between atoms: _383  and  _386
REMARK  161  A    between atoms: _386  and  _387
REMARK  162  A    between atoms: _387  and  _388
REMARK  163  A    between atoms: _388  and  _389
REMARK  164  A    between atoms: _389  and  _390
REMARK  165  A    between atoms: _394  and  _396
REMARK  166  A    between atoms: _396  and  _397
REMARK  167  A    between atoms: _396  and  _399
REMARK  168  A    between atoms: _399  and  _400
REMARK  169  A    between atoms: _400  and  _401
REMARK  170  A    between atoms: _403  and  _405
REMARK  171  A    between atoms: _405  and  _406
REMARK  172  A    between atoms: _405  and  _408
REMARK  173  A    between atoms: _408  and  _409
REMARK  174  A    between atoms: _412  and  _414
REMARK  175  A    between atoms: _414  and  _415
REMARK  176  A    between atoms: _417  and  _419
REMARK  177  A    between atoms: _419  and  _420
REMARK  178  A    between atoms: _422  and  _424
REMARK  179  A    between atoms: _424  and  _425
REMARK  180  A    between atoms: _424  and  _427
REMARK  181  A    between atoms: _427  and  _428
REMARK  182  A    between atoms: _431  and  _433
REMARK  183  A    between atoms: _433  and  _434
REMARK  184  A    between atoms: _436  and  _438
REMARK  185  A    between atoms: _438  and  _439
REMARK  186  A    between atoms: _441  and  _443
REMARK  187  A    between atoms: _443  and  _444
REMARK  188  A    between atoms: _443  and  _446
REMARK  189  A    between atoms: _446  and  _447
REMARK  190  A    between atoms: _453  and  _455
REMARK  191  A    between atoms: _455  and  _456
REMARK  192  A    between atoms: _455  and  _458
REMARK  193  A    between atoms: _458  and  _459
REMARK  194  A    between atoms: _462  and  _464
REMARK  195  A    between atoms: _464  and  _465
REMARK  196  A    between atoms: _464  and  _467
REMARK  197  A    between atoms: _470  and  _472
REMARK  198  A    between atoms: _472  and  _473
REMARK  199  A    between atoms: _472  and  _475
REMARK  200  A    between atoms: _475  and  _476
REMARK  201  A    between atoms: _480  and  _481
REMARK  202  A    between atoms: _486  and  _488
REMARK  203  A    between atoms: _488  and  _489
REMARK  204  A    between atoms: _488  and  _491
REMARK  205  A    between atoms: _491  and  _492
REMARK  206  A    between atoms: _496  and  _497
REMARK  207  A    between atoms: _502  and  _504
REMARK  208  A    between atoms: _504  and  _505
REMARK  209  A    between atoms: _504  and  _507
REMARK  210  A    between atoms: _510  and  _512
REMARK  211  A    between atoms: _512  and  _513
REMARK  212  A    between atoms: _512  and  _515
REMARK  213  A    between atoms: _515  and  _516
REMARK  214  A    between atoms: _521  and  _523
REMARK  215  A    between atoms: _523  and  _524
REMARK  216  A    between atoms: _523  and  _526
REMARK  217  A    between atoms: _526  and  _527
REMARK  218  A    between atoms: _530  and  _532
REMARK  219  A    between atoms: _532  and  _533
REMARK  220  A    between atoms: _532  and  _535
REMARK  221  A    between atoms: _535  and  _536
REMARK  222  A    between atoms: _539  and  _541
REMARK  223  A    between atoms: _541  and  _542
REMARK  224  A    between atoms: _544  and  _546
REMARK  225  A    between atoms: _546  and  _547
REMARK  226  A    between atoms: _546  and  _549
REMARK  227  A    between atoms: _549  and  _550
REMARK  228  A    between atoms: _550  and  _551
REMARK  229  A    between atoms: _551  and  _552
REMARK                            x       y       z     vdW  Elec       q    Type
REMARK                         _______ _______ _______ _____ _____    ______ ____
ROOT
ATOM      1  O   HOH     1      23.966  15.601   2.056  0.00  0.00    +0.000 OA
ENDROOT
TORSDOF 0
REMARK  Name = ../refined-set-2016/1ec2/1ec2_pocket.pdb
REMARK  229 active torsions:
REMARK  status: ('A' for Active; 'I' for Inactive)
REMARK    1  A    between atoms: _1  and  _3
REMARK    2  A    between atoms: _3  and  _4
REMARK    3  A    between atoms: _3  and  _6
REMARK    4  A    between atoms: _6  and  _7
REMARK    5  A    between atoms: _7  and  _8
REMARK    6  A    between atoms: _8  and  _9
REMARK    7  A    between atoms: _18  and  _20
REMARK    8  A    between atoms: _20  and  _21
REMARK    9  A    between atoms: _20  and  _23
REMARK   10  A    between atoms: _23  and  _24
REMARK   11  A    between atoms: _27  and  _29
REMARK   12  A    between atoms: _29  and  _30
REMARK   13  A    between atoms: _29  and  _32
REMARK   14  A    between atoms: _32  and  _33
REMARK   15  A    between atoms: _36  and  _38
REMARK   16  A    between atoms: _38  and  _39
REMARK   17  A    between atoms: _38  and  _41
REMARK   18  A    between atoms: _41  and  _42
REMARK   19  A    between atoms: _45  and  _47
REMARK   20  A    between atoms: _47  and  _48
REMARK   21  A    between atoms: _47  and  _50
REMARK   22  A    between atoms: _50  and  _51
REMARK   23  A    between atoms: _54  and  _56
REMARK   24  A    between atoms: _56  and  _57
REMARK   25  A    between atoms: _59  and  _61
REMARK   26  A    between atoms: _61  and  _62
REMARK   27  A    between atoms: _65  and  _67
REMARK   28  A    between atoms: _67  and  _68
REMARK   29  A    between atoms: _67  and  _70
REMARK   30  A    between atoms: _70  and  _71
REMARK   31  A    between atoms: _74  and  _76
REMARK   32  A    between atoms: _76  and  _77
REMARK   33  A    between atoms: _76  and  _79
REMARK   34  A    between atoms: _79  and  _80
REMARK   35  A    between atoms: _83  and  _85
REMARK   36  A    between atoms: _85  and  _86
REMARK   37  A    between atoms: _85  and  _88
REMARK   38  A    between atoms: _88  and  _89
REMARK   39  A    between atoms: _92  and  _94
REMARK   40  A    between atoms: _94  and  _95
REMARK   41  A    between atoms: _94  and  _97
REMARK   42  A    between atoms: _100  and  _102
REMARK   43  A    between atoms: _102  and  _103
REMARK   44  A    between atoms: _102  and  _105
REMARK   45  A    between atoms: _105  and  _106
REMARK   46  A    between atoms: _106  and  _107
REMARK   47  A    between atoms: _107  and  _108
REMARK   48  A    between atoms: _108  and  _109
REMARK   49  A    between atoms: _113  and  _115
REMARK   50  A    between atoms: _115  and  _116
REMARK   51  A    between atoms: _115  and  _118
REMARK   52  A    between atoms: _118  and  _119
REMARK   53  A    between atoms: _119  and  _120
REMARK   54  A    between atoms: _122  and  _124
REMARK   55  A    between atoms: _124  and  _125
REMARK   56  A    between atoms: _124  and  _127
REMARK   57  A    between atoms: _127  and  _128
REMARK   58  A    between atoms: _131  and  _133
REMARK   59  A    between atoms: _133  and  _134
REMARK   60  A    between atoms: _136  and  _138
REMARK   61  A    between atoms: _138  and  _139
REMARK   62  A    between atoms: _141  and  _143
REMARK   63  A    between atoms: _143  and  _144
REMARK   64  A    between atoms: _143  and  _146
REMARK   65  A    between atoms: _146  and  _147
REMARK   66  A    between atoms: _150  and  _152
REMARK   67  A    between atoms: _152  and  _153
REMARK   68  A    between atoms: _155  and  _157
REMARK   69  A    between atoms: _157  and  _158
REMARK   70  A    between atoms: _160  and  _162
REMARK   71  A    between atoms: _162  and  _163
REMARK   72  A    between atoms: _162  and  _165
REMARK   73  A    between atoms: _165  and  _166
REMARK   74  A    between atoms: _172  and  _174
REMARK   75  A    between atoms: _174  and  _175
REMARK   76  A    between atoms: _174  and  _177
REMARK   77  A    between atoms: _177  and  _178
REMARK   78  A    between atoms: _181  and  _183
REMARK   79  A    between atoms: _183  and  _184
REMARK   80  A    between atoms: _183  and  _186
REMARK   81  A    between atoms: _189  and  _191
REMARK   82  A    between atoms: _191  and  _192
REMARK   83  A    between atoms: _191  and  _194
REMARK   84  A    between atoms: _194  and  _195
REMARK   85  A    between atoms: _198  and  _200
REMARK   86  A    between atoms: _200  and  _201
REMARK   87  A    between atoms: _200  and  _203
REMARK   88  A    between atoms: _203  and  _204
REMARK   89  A    between atoms: _208  and  _209
REMARK   90  A    between atoms: _214  and  _216
REMARK   91  A    between atoms: _216  and  _217
REMARK   92  A    between atoms: _216  and  _219
REMARK   93  A    between atoms: _222  and  _224
REMARK   94  A    between atoms: _224  and  _225
REMARK   95  A    between atoms: _224  and  _227
REMARK   96  A    between atoms: _227  and  _228
REMARK   97  A    between atoms: _233  and  _235
REMARK   98  A    between atoms: _235  and  _236
REMARK   99  A    between atoms: _235  and  _238
REMARK  100  A    between atoms: _238  and  _239
REMARK  101  A    between atoms: _242  and  _244
REMARK  102  A    between atoms: _244  and  _245
REMARK  103  A    between atoms: _244  and  _247
REMARK  104  A    between atoms: _247  and  _248
REMARK  105  A    between atoms: _251  and  _253
REMARK  106  A    between atoms: _253  and  _254
REMARK  107  A    between atoms: _256  and  _258
REMARK  108  A    between atoms: _258  and  _259
REMARK  109  A    between atoms: _258  and  _261
REMARK  110  A    between atoms: _261  and  _262
REMARK  111  A    between atoms: _262  and  _263
REMARK  112  A    between atoms: _263  and  _264
REMARK  113  A    between atoms: _273  and  _275
REMARK  114  A    between atoms: _275  and  _276
REMARK  115  A    between atoms: _275  and  _278
REMARK  116  A    between atoms: _278  and  _279
REMARK  117  A    between atoms: _279  and  _280
REMARK  118  A    between atoms: _280  and  _281
REMARK  119  A    between atoms: _290  and  _292
REMARK  120  A    between atoms: _292  and  _293
REMARK  121  A    between atoms: _292  and  _295
REMARK  122  A    between atoms: _295  and  _296
REMARK  123  A    between atoms: _299  and  _301
REMARK  124  A    between atoms: _301  and  _302
REMARK  125  A    between atoms: _301  and  _304
REMARK  126  A    between atoms: _304  and  _305
REMARK  127  A    between atoms: _308  and  _310
REMARK  128  A    between atoms: _310  and  _311
REMARK  129  A    between atoms: _310  and  _313
REMARK  130  A    between atoms: _313  and  _314
REMARK  131  A    between atoms: _317  and  _319
REMARK  132  A    between atoms: _319  and  _320
REMARK  133  A    between atoms: _319  and  _322
REMARK  134  A    between atoms: _322  and  _323
REMARK  135  A    between atoms: _326  and  _328
REMARK  136  A    between atoms: _328  and  _329
REMARK  137  A    between atoms: _328  and  _331
REMARK  138  A    between atoms: _331  and  _332
REMARK  139  A    between atoms: _335  and  _337
REMARK  140  A    between atoms: _337  and  _338
REMARK  141  A    between atoms: _340  and  _342
REMARK  142  A    between atoms: _342  and  _343
REMARK  143  A    between atoms: _346  and  _348
REMARK  144  A    between atoms: _348  and  _349
REMARK  145  A    between atoms: _348  and  _351
REMARK  146  A    between atoms: _351  and  _352
REMARK  147  A    between atoms: _355  and  _357
REMARK  148  A    between atoms: _357  and  _358
REMARK  149  A    between atoms: _357  and  _360
REMARK  150  A    between atoms: _360  and  _361
REMARK  151  A    between atoms: _364  and  _366
REMARK  152  A    between atoms: _366  and  _367
REMARK  153  A    between atoms: _366  and  _369
REMARK  154  A    between atoms: _369  and  _370
REMARK  155  A    between atoms: _373  and  _375
REMARK  156  A    between atoms: _375  and  _376
REMARK  157  A    between atoms: _375  and  _378
REMARK  158  A    between atoms: _381  and  _383
REMARK  159  A    between atoms: _383  and  _384
REMARK  160  A    between atoms: _383  and  _386
REMARK  161  A    between atoms: _386  and  _387
REMARK  162  A    between atoms: _387  and  _388
REMARK  163  A    between atoms: _388  and  _389
REMARK  164  A    between atoms: _389  and  _390
REMARK  165  A    between atoms: _394  and  _396
REMARK  166  A    between atoms: _396  and  _397
REMARK  167  A    between atoms: _396  and  _399
REMARK  168  A    between atoms: _399  and  _400
REMARK  169  A    between atoms: _400  and  _401
REMARK  170  A    between atoms: _403  and  _405
REMARK  171  A    between atoms: _405  and  _406
REMARK  172  A    between atoms: _405  and  _408
REMARK  173  A    between atoms: _408  and  _409
REMARK  174  A    between atoms: _412  and  _414
REMARK  175  A    between atoms: _414  and  _415
REMARK  176  A    between atoms: _417  and  _419
REMARK  177  A    between atoms: _419  and  _420
REMARK  178  A    between atoms: _422  and  _424
REMARK  179  A    between atoms: _424  and  _425
REMARK  180  A    between atoms: _424  and  _427
REMARK  181  A    between atoms: _427  and  _428
REMARK  182  A    between atoms: _431  and  _433
REMARK  183  A    between atoms: _433  and  _434
REMARK  184  A    between atoms: _436  and  _438
REMARK  185  A    between atoms: _438  and  _439
REMARK  186  A    between atoms: _441  and  _443
REMARK  187  A    between atoms: _443  and  _444
REMARK  188  A    between atoms: _443  and  _446
REMARK  189  A    between atoms: _446  and  _447
REMARK  190  A    between atoms: _453  and  _455
REMARK  191  A    between atoms: _455  and  _456
REMARK  192  A    between atoms: _455  and  _458
REMARK  193  A    between atoms: _458  and  _459
REMARK  194  A    between atoms: _462  and  _464
REMARK  195  A    between atoms: _464  and  _465
REMARK  196  A    between atoms: _464  and  _467
REMARK  197  A    between atoms: _470  and  _472
REMARK  198  A    between atoms: _472  and  _473
REMARK  199  A    between atoms: _472  and  _475
REMARK  200  A    between atoms: _475  and  _476
REMARK  201  A    between atoms: _480  and  _481
REMARK  202  A    between atoms: _486  and  _488
REMARK  203  A    between atoms: _488  and  _489
REMARK  204  A    between atoms: _488  and  _491
REMARK  205  A    between atoms: _491  and  _492
REMARK  206  A    between atoms: _496  and  _497
REMARK  207  A    between atoms: _502  and  _504
REMARK  208  A    between atoms: _504  and  _505
REMARK  209  A    between atoms: _504  and  _507
REMARK  210  A    between atoms: _510  and  _512
REMARK  211  A    between atoms: _512  and  _513
REMARK  212  A    between atoms: _512  and  _515
REMARK  213  A    between atoms: _515  and  _516
REMARK  214  A    between atoms: _521  and  _523
REMARK  215  A    between atoms: _523  and  _524
REMARK  216  A    between atoms: _523  and  _526
REMARK  217  A    between atoms: _526  and  _527
REMARK  218  A    between atoms: _530  and  _532
REMARK  219  A    between atoms: _532  and  _533
REMARK  220  A    between atoms: _532  and  _535
REMARK  221  A    between atoms: _535  and  _536
REMARK  222  A    between atoms: _539  and  _541
REMARK  223  A    between atoms: _541  and  _542
REMARK  224  A    between atoms: _544  and  _546
REMARK  225  A    between atoms: _546  and  _547
REMARK  226  A    between atoms: _546  and  _549
REMARK  227  A    between atoms: _549  and  _550
REMARK  228  A    between atoms: _550  and  _551
REMARK  229  A    between atoms: _551  and  _552
REMARK                            x       y       z     vdW  Elec       q    Type
REMARK                         _______ _______ _______ _____ _____    ______ ____
ROOT
ATOM      1  O   HOH     1       6.008  28.777  -3.548  0.00  0.00    +0.000 OA
ENDROOT
TORSDOF 0
REMARK  Name = ../refined-set-2016/1ec2/1ec2_pocket.pdb
REMARK  229 active torsions:
REMARK  status: ('A' for Active; 'I' for Inactive)
REMARK    1  A    between atoms: _1  and  _3
REMARK    2  A    between atoms: _3  and  _4
REMARK    3  A    between atoms: _3  and  _6
REMARK    4  A    between atoms: _6  and  _7
REMARK    5  A    between atoms: _7  and  _8
REMARK    6  A    between atoms: _8  and  _9
REMARK    7  A    between atoms: _18  and  _20
REMARK    8  A    between atoms: _20  and  _21
REMARK    9  A    between atoms: _20  and  _23
REMARK   10  A    between atoms: _23  and  _24
REMARK   11  A    between atoms: _27  and  _29
REMARK   12  A    between atoms: _29  and  _30
REMARK   13  A    between atoms: _29  and  _32
REMARK   14  A    between atoms: _32  and  _33
REMARK   15  A    between atoms: _36  and  _38
REMARK   16  A    between atoms: _38  and  _39
REMARK   17  A    between atoms: _38  and  _41
REMARK   18  A    between atoms: _41  and  _42
REMARK   19  A    between atoms: _45  and  _47
REMARK   20  A    between atoms: _47  and  _48
REMARK   21  A    between atoms: _47  and  _50
REMARK   22  A    between atoms: _50  and  _51
REMARK   23  A    between atoms: _54  and  _56
REMARK   24  A    between atoms: _56  and  _57
REMARK   25  A    between atoms: _59  and  _61
REMARK   26  A    between atoms: _61  and  _62
REMARK   27  A    between atoms: _65  and  _67
REMARK   28  A    between atoms: _67  and  _68
REMARK   29  A    between atoms: _67  and  _70
REMARK   30  A    between atoms: _70  and  _71
REMARK   31  A    between atoms: _74  and  _76
REMARK   32  A    between atoms: _76  and  _77
REMARK   33  A    between atoms: _76  and  _79
REMARK   34  A    between atoms: _79  and  _80
REMARK   35  A    between atoms: _83  and  _85
REMARK   36  A    between atoms: _85  and  _86
REMARK   37  A    between atoms: _85  and  _88
REMARK   38  A    between atoms: _88  and  _89
REMARK   39  A    between atoms: _92  and  _94
REMARK   40  A    between atoms: _94  and  _95
REMARK   41  A    between atoms: _94  and  _97
REMARK   42  A    between atoms: _100  and  _102
REMARK   43  A    between atoms: _102  and  _103
REMARK   44  A    between atoms: _102  and  _105
REMARK   45  A    between atoms: _105  and  _106
REMARK   46  A    between atoms: _106  and  _107
REMARK   47  A    between atoms: _107  and  _108
REMARK   48  A    between atoms: _108  and  _109
REMARK   49  A    between atoms: _113  and  _115
REMARK   50  A    between atoms: _115  and  _116
REMARK   51  A    between atoms: _115  and  _118
REMARK   52  A    between atoms: _118  and  _119
REMARK   53  A    between atoms: _119  and  _120
REMARK   54  A    between atoms: _122  and  _124
REMARK   55  A    between atoms: _124  and  _125
REMARK   56  A    between atoms: _124  and  _127
REMARK   57  A    between atoms: _127  and  _128
REMARK   58  A    between atoms: _131  and  _133
REMARK   59  A    between atoms: _133  and  _134
REMARK   60  A    between atoms: _136  and  _138
REMARK   61  A    between atoms: _138  and  _139
REMARK   62  A    between atoms: _141  and  _143
REMARK   63  A    between atoms: _143  and  _144
REMARK   64  A    between atoms: _143  and  _146
REMARK   65  A    between atoms: _146  and  _147
REMARK   66  A    between atoms: _150  and  _152
REMARK   67  A    between atoms: _152  and  _153
REMARK   68  A    between atoms: _155  and  _157
REMARK   69  A    between atoms: _157  and  _158
REMARK   70  A    between atoms: _160  and  _162
REMARK   71  A    between atoms: _162  and  _163
REMARK   72  A    between atoms: _162  and  _165
REMARK   73  A    between atoms: _165  and  _166
REMARK   74  A    between atoms: _172  and  _174
REMARK   75  A    between atoms: _174  and  _175
REMARK   76  A    between atoms: _174  and  _177
REMARK   77  A    between atoms: _177  and  _178
REMARK   78  A    between atoms: _181  and  _183
REMARK   79  A    between atoms: _183  and  _184
REMARK   80  A    between atoms: _183  and  _186
REMARK   81  A    between atoms: _189  and  _191
REMARK   82  A    between atoms: _191  and  _192
REMARK   83  A    between atoms: _191  and  _194
REMARK   84  A    between atoms: _194  and  _195
REMARK   85  A    between atoms: _198  and  _200
REMARK   86  A    between atoms: _200  and  _201
REMARK   87  A    between atoms: _200  and  _203
REMARK   88  A    between atoms: _203  and  _204
REMARK   89  A    between atoms: _208  and  _209
REMARK   90  A    between atoms: _214  and  _216
REMARK   91  A    between atoms: _216  and  _217
REMARK   92  A    between atoms: _216  and  _219
REMARK   93  A    between atoms: _222  and  _224
REMARK   94  A    between atoms: _224  and  _225
REMARK   95  A    between atoms: _224  and  _227
REMARK   96  A    between atoms: _227  and  _228
REMARK   97  A    between atoms: _233  and  _235
REMARK   98  A    between atoms: _235  and  _236
REMARK   99  A    between atoms: _235  and  _238
REMARK  100  A    between atoms: _238  and  _239
REMARK  101  A    between atoms: _242  and  _244
REMARK  102  A    between atoms: _244  and  _245
REMARK  103  A    between atoms: _244  and  _247
REMARK  104  A    between atoms: _247  and  _248
REMARK  105  A    between atoms: _251  and  _253
REMARK  106  A    between atoms: _253  and  _254
REMARK  107  A    between atoms: _256  and  _258
REMARK  108  A    between atoms: _258  and  _259
REMARK  109  A    between atoms: _258  and  _261
REMARK  110  A    between atoms: _261  and  _262
REMARK  111  A    between atoms: _262  and  _263
REMARK  112  A    between atoms: _263  and  _264
REMARK  113  A    between atoms: _273  and  _275
REMARK  114  A    between atoms: _275  and  _276
REMARK  115  A    between atoms: _275  and  _278
REMARK  116  A    between atoms: _278  and  _279
REMARK  117  A    between atoms: _279  and  _280
REMARK  118  A    between atoms: _280  and  _281
REMARK  119  A    between atoms: _290  and  _292
REMARK  120  A    between atoms: _292  and  _293
REMARK  121  A    between atoms: _292  and  _295
REMARK  122  A    between atoms: _295  and  _296
REMARK  123  A    between atoms: _299  and  _301
REMARK  124  A    between atoms: _301  and  _302
REMARK  125  A    between atoms: _301  and  _304
REMARK  126  A    between atoms: _304  and  _305
REMARK  127  A    between atoms: _308  and  _310
REMARK  128  A    between atoms: _310  and  _311
REMARK  129  A    between atoms: _310  and  _313
REMARK  130  A    between atoms: _313  and  _314
REMARK  131  A    between atoms: _317  and  _319
REMARK  132  A    between atoms: _319  and  _320
REMARK  133  A    between atoms: _319  and  _322
REMARK  134  A    between atoms: _322  and  _323
REMARK  135  A    between atoms: _326  and  _328
REMARK  136  A    between atoms: _328  and  _329
REMARK  137  A    between atoms: _328  and  _331
REMARK  138  A    between atoms: _331  and  _332
REMARK  139  A    between atoms: _335  and  _337
REMARK  140  A    between atoms: _337  and  _338
REMARK  141  A    between atoms: _340  and  _342
REMARK  142  A    between atoms: _342  and  _343
REMARK  143  A    between atoms: _346  and  _348
REMARK  144  A    between atoms: _348  and  _349
REMARK  145  A    between atoms: _348  and  _351
REMARK  146  A    between atoms: _351  and  _352
REMARK  147  A    between atoms: _355  and  _357
REMARK  148  A    between atoms: _357  and  _358
REMARK  149  A    between atoms: _357  and  _360
REMARK  150  A    between atoms: _360  and  _361
REMARK  151  A    between atoms: _364  and  _366
REMARK  152  A    between atoms: _366  and  _367
REMARK  153  A    between atoms: _366  and  _369
REMARK  154  A    between atoms: _369  and  _370
REMARK  155  A    between atoms: _373  and  _375
REMARK  156  A    between atoms: _375  and  _376
REMARK  157  A    between atoms: _375  and  _378
REMARK  158  A    between atoms: _381  and  _383
REMARK  159  A    between atoms: _383  and  _384
REMARK  160  A    between atoms: _383  and  _386
REMARK  161  A    between atoms: _386  and  _387
REMARK  162  A    between atoms: _387  and  _388
REMARK  163  A    between atoms: _388  and  _389
REMARK  164  A    between atoms: _389  and  _390
REMARK  165  A    between atoms: _394  and  _396
REMARK  166  A    between atoms: _396  and  _397
REMARK  167  A    between atoms: _396  and  _399
REMARK  168  A    between atoms: _399  and  _400
REMARK  169  A    between atoms: _400  and  _401
REMARK  170  A    between atoms: _403  and  _405
REMARK  171  A    between atoms: _405  and  _406
REMARK  172  A    between atoms: _405  and  _408
REMARK  173  A    between atoms: _408  and  _409
REMARK  174  A    between atoms: _412  and  _414
REMARK  175  A    between atoms: _414  and  _415
REMARK  176  A    between atoms: _417  and  _419
REMARK  177  A    between atoms: _419  and  _420
REMARK  178  A    between atoms: _422  and  _424
REMARK  179  A    between atoms: _424  and  _425
REMARK  180  A    between atoms: _424  and  _427
REMARK  181  A    between atoms: _427  and  _428
REMARK  182  A    between atoms: _431  and  _433
REMARK  183  A    between atoms: _433  and  _434
REMARK  184  A    between atoms: _436  and  _438
REMARK  185  A    between atoms: _438  and  _439
REMARK  186  A    between atoms: _441  and  _443
REMARK  187  A    between atoms: _443  and  _444
REMARK  188  A    between atoms: _443  and  _446
REMARK  189  A    between atoms: _446  and  _447
REMARK  190  A    between atoms: _453  and  _455
REMARK  191  A    between atoms: _455  and  _456
REMARK  192  A    between atoms: _455  and  _458
REMARK  193  A    between atoms: _458  and  _459
REMARK  194  A    between atoms: _462  and  _464
REMARK  195  A    between atoms: _464  and  _465
REMARK  196  A    between atoms: _464  and  _467
REMARK  197  A    between atoms: _470  and  _472
REMARK  198  A    between atoms: _472  and  _473
REMARK  199  A    between atoms: _472  and  _475
REMARK  200  A    between atoms: _475  and  _476
REMARK  201  A    between atoms: _480  and  _481
REMARK  202  A    between atoms: _486  and  _488
REMARK  203  A    between atoms: _488  and  _489
REMARK  204  A    between atoms: _488  and  _491
REMARK  205  A    between atoms: _491  and  _492
REMARK  206  A    between atoms: _496  and  _497
REMARK  207  A    between atoms: _502  and  _504
REMARK  208  A    between atoms: _504  and  _505
REMARK  209  A    between atoms: _504  and  _507
REMARK  210  A    between atoms: _510  and  _512
REMARK  211  A    between atoms: _512  and  _513
REMARK  212  A    between atoms: _512  and  _515
REMARK  213  A    between atoms: _515  and  _516
REMARK  214  A    between atoms: _521  and  _523
REMARK  215  A    between atoms: _523  and  _524
REMARK  216  A    between atoms: _523  and  _526
REMARK  217  A    between atoms: _526  and  _527
REMARK  218  A    between atoms: _530  and  _532
REMARK  219  A    between atoms: _532  and  _533
REMARK  220  A    between atoms: _532  and  _535
REMARK  221  A    between atoms: _535  and  _536
REMARK  222  A    between atoms: _539  and  _541
REMARK  223  A    between atoms: _541  and  _542
REMARK  224  A    between atoms: _544  and  _546
REMARK  225  A    between atoms: _546  and  _547
REMARK  226  A    between atoms: _546  and  _549
REMARK  227  A    between atoms: _549  and  _550
REMARK  228  A    between atoms: _550  and  _551
REMARK  229  A    between atoms: _551  and  _552
REMARK                            x       y       z     vdW  Elec       q    Type
REMARK                         _______ _______ _______ _____ _____    ______ ____
ROOT
ATOM      1  O   HOH     1      20.443  15.583   3.974  0.00  0.00    +0.000 OA
ENDROOT
TORSDOF 0
REMARK  Name = ../refined-set-2016/1ec2/1ec2_pocket.pdb
REMARK  229 active torsions:
REMARK  status: ('A' for Active; 'I' for Inactive)
REMARK    1  A    between atoms: _1  and  _3
REMARK    2  A    between atoms: _3  and  _4
REMARK    3  A    between atoms: _3  and  _6
REMARK    4  A    between atoms: _6  and  _7
REMARK    5  A    between atoms: _7  and  _8
REMARK    6  A    between atoms: _8  and  _9
REMARK    7  A    between atoms: _18  and  _20
REMARK    8  A    between atoms: _20  and  _21
REMARK    9  A    between atoms: _20  and  _23
REMARK   10  A    between atoms: _23  and  _24
REMARK   11  A    between atoms: _27  and  _29
REMARK   12  A    between atoms: _29  and  _30
REMARK   13  A    between atoms: _29  and  _32
REMARK   14  A    between atoms: _32  and  _33
REMARK   15  A    between atoms: _36  and  _38
REMARK   16  A    between atoms: _38  and  _39
REMARK   17  A    between atoms: _38  and  _41
REMARK   18  A    between atoms: _41  and  _42
REMARK   19  A    between atoms: _45  and  _47
REMARK   20  A    between atoms: _47  and  _48
REMARK   21  A    between atoms: _47  and  _50
REMARK   22  A    between atoms: _50  and  _51
REMARK   23  A    between atoms: _54  and  _56
REMARK   24  A    between atoms: _56  and  _57
REMARK   25  A    between atoms: _59  and  _61
REMARK   26  A    between atoms: _61  and  _62
REMARK   27  A    between atoms: _65  and  _67
REMARK   28  A    between atoms: _67  and  _68
REMARK   29  A    between atoms: _67  and  _70
REMARK   30  A    between atoms: _70  and  _71
REMARK   31  A    between atoms: _74  and  _76
REMARK   32  A    between atoms: _76  and  _77
REMARK   33  A    between atoms: _76  and  _79
REMARK   34  A    between atoms: _79  and  _80
REMARK   35  A    between atoms: _83  and  _85
REMARK   36  A    between atoms: _85  and  _86
REMARK   37  A    between atoms: _85  and  _88
REMARK   38  A    between atoms: _88  and  _89
REMARK   39  A    between atoms: _92  and  _94
REMARK   40  A    between atoms: _94  and  _95
REMARK   41  A    between atoms: _94  and  _97
REMARK   42  A    between atoms: _100  and  _102
REMARK   43  A    between atoms: _102  and  _103
REMARK   44  A    between atoms: _102  and  _105
REMARK   45  A    between atoms: _105  and  _106
REMARK   46  A    between atoms: _106  and  _107
REMARK   47  A    between atoms: _107  and  _108
REMARK   48  A    between atoms: _108  and  _109
REMARK   49  A    between atoms: _113  and  _115
REMARK   50  A    between atoms: _115  and  _116
REMARK   51  A    between atoms: _115  and  _118
REMARK   52  A    between atoms: _118  and  _119
REMARK   53  A    between atoms: _119  and  _120
REMARK   54  A    between atoms: _122  and  _124
REMARK   55  A    between atoms: _124  and  _125
REMARK   56  A    between atoms: _124  and  _127
REMARK   57  A    between atoms: _127  and  _128
REMARK   58  A    between atoms: _131  and  _133
REMARK   59  A    between atoms: _133  and  _134
REMARK   60  A    between atoms: _136  and  _138
REMARK   61  A    between atoms: _138  and  _139
REMARK   62  A    between atoms: _141  and  _143
REMARK   63  A    between atoms: _143  and  _144
REMARK   64  A    between atoms: _143  and  _146
REMARK   65  A    between atoms: _146  and  _147
REMARK   66  A    between atoms: _150  and  _152
REMARK   67  A    between atoms: _152  and  _153
REMARK   68  A    between atoms: _155  and  _157
REMARK   69  A    between atoms: _157  and  _158
REMARK   70  A    between atoms: _160  and  _162
REMARK   71  A    between atoms: _162  and  _163
REMARK   72  A    between atoms: _162  and  _165
REMARK   73  A    between atoms: _165  and  _166
REMARK   74  A    between atoms: _172  and  _174
REMARK   75  A    between atoms: _174  and  _175
REMARK   76  A    between atoms: _174  and  _177
REMARK   77  A    between atoms: _177  and  _178
REMARK   78  A    between atoms: _181  and  _183
REMARK   79  A    between atoms: _183  and  _184
REMARK   80  A    between atoms: _183  and  _186
REMARK   81  A    between atoms: _189  and  _191
REMARK   82  A    between atoms: _191  and  _192
REMARK   83  A    between atoms: _191  and  _194
REMARK   84  A    between atoms: _194  and  _195
REMARK   85  A    between atoms: _198  and  _200
REMARK   86  A    between atoms: _200  and  _201
REMARK   87  A    between atoms: _200  and  _203
REMARK   88  A    between atoms: _203  and  _204
REMARK   89  A    between atoms: _208  and  _209
REMARK   90  A    between atoms: _214  and  _216
REMARK   91  A    between atoms: _216  and  _217
REMARK   92  A    between atoms: _216  and  _219
REMARK   93  A    between atoms: _222  and  _224
REMARK   94  A    between atoms: _224  and  _225
REMARK   95  A    between atoms: _224  and  _227
REMARK   96  A    between atoms: _227  and  _228
REMARK   97  A    between atoms: _233  and  _235
REMARK   98  A    between atoms: _235  and  _236
REMARK   99  A    between atoms: _235  and  _238
REMARK  100  A    between atoms: _238  and  _239
REMARK  101  A    between atoms: _242  and  _244
REMARK  102  A    between atoms: _244  and  _245
REMARK  103  A    between atoms: _244  and  _247
REMARK  104  A    between atoms: _247  and  _248
REMARK  105  A    between atoms: _251  and  _253
REMARK  106  A    between atoms: _253  and  _254
REMARK  107  A    between atoms: _256  and  _258
REMARK  108  A    between atoms: _258  and  _259
REMARK  109  A    between atoms: _258  and  _261
REMARK  110  A    between atoms: _261  and  _262
REMARK  111  A    between atoms: _262  and  _263
REMARK  112  A    between atoms: _263  and  _264
REMARK  113  A    between atoms: _273  and  _275
REMARK  114  A    between atoms: _275  and  _276
REMARK  115  A    between atoms: _275  and  _278
REMARK  116  A    between atoms: _278  and  _279
REMARK  117  A    between atoms: _279  and  _280
REMARK  118  A    between atoms: _280  and  _281
REMARK  119  A    between atoms: _290  and  _292
REMARK  120  A    between atoms: _292  and  _293
REMARK  121  A    between atoms: _292  and  _295
REMARK  122  A    between atoms: _295  and  _296
REMARK  123  A    between atoms: _299  and  _301
REMARK  124  A    between atoms: _301  and  _302
REMARK  125  A    between atoms: _301  and  _304
REMARK  126  A    between atoms: _304  and  _305
REMARK  127  A    between atoms: _308  and  _310
REMARK  128  A    between atoms: _310  and  _311
REMARK  129  A    between atoms: _310  and  _313
REMARK  130  A    between atoms: _313  and  _314
REMARK  131  A    between atoms: _317  and  _319
REMARK  132  A    between atoms: _319  and  _320
REMARK  133  A    between atoms: _319  and  _322
REMARK  134  A    between atoms: _322  and  _323
REMARK  135  A    between atoms: _326  and  _328
REMARK  136  A    between atoms: _328  and  _329
REMARK  137  A    between atoms: _328  and  _331
REMARK  138  A    between atoms: _331  and  _332
REMARK  139  A    between atoms: _335  and  _337
REMARK  140  A    between atoms: _337  and  _338
REMARK  141  A    between atoms: _340  and  _342
REMARK  142  A    between atoms: _342  and  _343
REMARK  143  A    between atoms: _346  and  _348
REMARK  144  A    between atoms: _348  and  _349
REMARK  145  A    between atoms: _348  and  _351
REMARK  146  A    between atoms: _351  and  _352
REMARK  147  A    between atoms: _355  and  _357
REMARK  148  A    between atoms: _357  and  _358
REMARK  149  A    between atoms: _357  and  _360
REMARK  150  A    between atoms: _360  and  _361
REMARK  151  A    between atoms: _364  and  _366
REMARK  152  A    between atoms: _366  and  _367
REMARK  153  A    between atoms: _366  and  _369
REMARK  154  A    between atoms: _369  and  _370
REMARK  155  A    between atoms: _373  and  _375
REMARK  156  A    between atoms: _375  and  _376
REMARK  157  A    between atoms: _375  and  _378
REMARK  158  A    between atoms: _381  and  _383
REMARK  159  A    between atoms: _383  and  _384
REMARK  160  A    between atoms: _383  and  _386
REMARK  161  A    between atoms: _386  and  _387
REMARK  162  A    between atoms: _387  and  _388
REMARK  163  A    between atoms: _388  and  _389
REMARK  164  A    between atoms: _389  and  _390
REMARK  165  A    between atoms: _394  and  _396
REMARK  166  A    between atoms: _396  and  _397
REMARK  167  A    between atoms: _396  and  _399
REMARK  168  A    between atoms: _399  and  _400
REMARK  169  A    between atoms: _400  and  _401
REMARK  170  A    between atoms: _403  and  _405
REMARK  171  A    between atoms: _405  and  _406
REMARK  172  A    between atoms: _405  and  _408
REMARK  173  A    between atoms: _408  and  _409
REMARK  174  A    between atoms: _412  and  _414
REMARK  175  A    between atoms: _414  and  _415
REMARK  176  A    between atoms: _417  and  _419
REMARK  177  A    between atoms: _419  and  _420
REMARK  178  A    between atoms: _422  and  _424
REMARK  179  A    between atoms: _424  and  _425
REMARK  180  A    between atoms: _424  and  _427
REMARK  181  A    between atoms: _427  and  _428
REMARK  182  A    between atoms: _431  and  _433
REMARK  183  A    between atoms: _433  and  _434
REMARK  184  A    between atoms: _436  and  _438
REMARK  185  A    between atoms: _438  and  _439
REMARK  186  A    between atoms: _441  and  _443
REMARK  187  A    between atoms: _443  and  _444
REMARK  188  A    between atoms: _443  and  _446
REMARK  189  A    between atoms: _446  and  _447
REMARK  190  A    between atoms: _453  and  _455
REMARK  191  A    between atoms: _455  and  _456
REMARK  192  A    between atoms: _455  and  _458
REMARK  193  A    between atoms: _458  and  _459
REMARK  194  A    between atoms: _462  and  _464
REMARK  195  A    between atoms: _464  and  _465
REMARK  196  A    between atoms: _464  and  _467
REMARK  197  A    between atoms: _470  and  _472
REMARK  198  A    between atoms: _472  and  _473
REMARK  199  A    between atoms: _472  and  _475
REMARK  200  A    between atoms: _475  and  _476
REMARK  201  A    between atoms: _480  and  _481
REMARK  202  A    between atoms: _486  and  _488
REMARK  203  A    between atoms: _488  and  _489
REMARK  204  A    between atoms: _488  and  _491
REMARK  205  A    between atoms: _491  and  _492
REMARK  206  A    between atoms: _496  and  _497
REMARK  207  A    between atoms: _502  and  _504
REMARK  208  A    between atoms: _504  and  _505
REMARK  209  A    between atoms: _504  and  _507
REMARK  210  A    between atoms: _510  and  _512
REMARK  211  A    between atoms: _512  and  _513
REMARK  212  A    between atoms: _512  and  _515
REMARK  213  A    between atoms: _515  and  _516
REMARK  214  A    between atoms: _521  and  _523
REMARK  215  A    between atoms: _523  and  _524
REMARK  216  A    between atoms: _523  and  _526
REMARK  217  A    between atoms: _526  and  _527
REMARK  218  A    between atoms: _530  and  _532
REMARK  219  A    between atoms: _532  and  _533
REMARK  220  A    between atoms: _532  and  _535
REMARK  221  A    between atoms: _535  and  _536
REMARK  222  A    between atoms: _539  and  _541
REMARK  223  A    between atoms: _541  and  _542
REMARK  224  A    between atoms: _544  and  _546
REMARK  225  A    between atoms: _546  and  _547
REMARK  226  A    between atoms: _546  and  _549
REMARK  227  A    between atoms: _549  and  _550
REMARK  228  A    between atoms: _550  and  _551
REMARK  229  A    between atoms: _551  and  _552
REMARK                            x       y       z     vdW  Elec       q    Type
REMARK                         _______ _______ _______ _____ _____    ______ ____
ROOT
ATOM      1  O   HOH     1      25.217  19.624   0.612  0.00  0.00    +0.000 OA
ENDROOT
TORSDOF 0
REMARK  Name = ../refined-set-2016/1ec2/1ec2_pocket.pdb
REMARK  229 active torsions:
REMARK  status: ('A' for Active; 'I' for Inactive)
REMARK    1  A    between atoms: _1  and  _3
REMARK    2  A    between atoms: _3  and  _4
REMARK    3  A    between atoms: _3  and  _6
REMARK    4  A    between atoms: _6  and  _7
REMARK    5  A    between atoms: _7  and  _8
REMARK    6  A    between atoms: _8  and  _9
REMARK    7  A    between atoms: _18  and  _20
REMARK    8  A    between atoms: _20  and  _21
REMARK    9  A    between atoms: _20  and  _23
REMARK   10  A    between atoms: _23  and  _24
REMARK   11  A    between atoms: _27  and  _29
REMARK   12  A    between atoms: _29  and  _30
REMARK   13  A    between atoms: _29  and  _32
REMARK   14  A    between atoms: _32  and  _33
REMARK   15  A    between atoms: _36  and  _38
REMARK   16  A    between atoms: _38  and  _39
REMARK   17  A    between atoms: _38  and  _41
REMARK   18  A    between atoms: _41  and  _42
REMARK   19  A    between atoms: _45  and  _47
REMARK   20  A    between atoms: _47  and  _48
REMARK   21  A    between atoms: _47  and  _50
REMARK   22  A    between atoms: _50  and  _51
REMARK   23  A    between atoms: _54  and  _56
REMARK   24  A    between atoms: _56  and  _57
REMARK   25  A    between atoms: _59  and  _61
REMARK   26  A    between atoms: _61  and  _62
REMARK   27  A    between atoms: _65  and  _67
REMARK   28  A    between atoms: _67  and  _68
REMARK   29  A    between atoms: _67  and  _70
REMARK   30  A    between atoms: _70  and  _71
REMARK   31  A    between atoms: _74  and  _76
REMARK   32  A    between atoms: _76  and  _77
REMARK   33  A    between atoms: _76  and  _79
REMARK   34  A    between atoms: _79  and  _80
REMARK   35  A    between atoms: _83  and  _85
REMARK   36  A    between atoms: _85  and  _86
REMARK   37  A    between atoms: _85  and  _88
REMARK   38  A    between atoms: _88  and  _89
REMARK   39  A    between atoms: _92  and  _94
REMARK   40  A    between atoms: _94  and  _95
REMARK   41  A    between atoms: _94  and  _97
REMARK   42  A    between atoms: _100  and  _102
REMARK   43  A    between atoms: _102  and  _103
REMARK   44  A    between atoms: _102  and  _105
REMARK   45  A    between atoms: _105  and  _106
REMARK   46  A    between atoms: _106  and  _107
REMARK   47  A    between atoms: _107  and  _108
REMARK   48  A    between atoms: _108  and  _109
REMARK   49  A    between atoms: _113  and  _115
REMARK   50  A    between atoms: _115  and  _116
REMARK   51  A    between atoms: _115  and  _118
REMARK   52  A    between atoms: _118  and  _119
REMARK   53  A    between atoms: _119  and  _120
REMARK   54  A    between atoms: _122  and  _124
REMARK   55  A    between atoms: _124  and  _125
REMARK   56  A    between atoms: _124  and  _127
REMARK   57  A    between atoms: _127  and  _128
REMARK   58  A    between atoms: _131  and  _133
REMARK   59  A    between atoms: _133  and  _134
REMARK   60  A    between atoms: _136  and  _138
REMARK   61  A    between atoms: _138  and  _139
REMARK   62  A    between atoms: _141  and  _143
REMARK   63  A    between atoms: _143  and  _144
REMARK   64  A    between atoms: _143  and  _146
REMARK   65  A    between atoms: _146  and  _147
REMARK   66  A    between atoms: _150  and  _152
REMARK   67  A    between atoms: _152  and  _153
REMARK   68  A    between atoms: _155  and  _157
REMARK   69  A    between atoms: _157  and  _158
REMARK   70  A    between atoms: _160  and  _162
REMARK   71  A    between atoms: _162  and  _163
REMARK   72  A    between atoms: _162  and  _165
REMARK   73  A    between atoms: _165  and  _166
REMARK   74  A    between atoms: _172  and  _174
REMARK   75  A    between atoms: _174  and  _175
REMARK   76  A    between atoms: _174  and  _177
REMARK   77  A    between atoms: _177  and  _178
REMARK   78  A    between atoms: _181  and  _183
REMARK   79  A    between atoms: _183  and  _184
REMARK   80  A    between atoms: _183  and  _186
REMARK   81  A    between atoms: _189  and  _191
REMARK   82  A    between atoms: _191  and  _192
REMARK   83  A    between atoms: _191  and  _194
REMARK   84  A    between atoms: _194  and  _195
REMARK   85  A    between atoms: _198  and  _200
REMARK   86  A    between atoms: _200  and  _201
REMARK   87  A    between atoms: _200  and  _203
REMARK   88  A    between atoms: _203  and  _204
REMARK   89  A    between atoms: _208  and  _209
REMARK   90  A    between atoms: _214  and  _216
REMARK   91  A    between atoms: _216  and  _217
REMARK   92  A    between atoms: _216  and  _219
REMARK   93  A    between atoms: _222  and  _224
REMARK   94  A    between atoms: _224  and  _225
REMARK   95  A    between atoms: _224  and  _227
REMARK   96  A    between atoms: _227  and  _228
REMARK   97  A    between atoms: _233  and  _235
REMARK   98  A    between atoms: _235  and  _236
REMARK   99  A    between atoms: _235  and  _238
REMARK  100  A    between atoms: _238  and  _239
REMARK  101  A    between atoms: _242  and  _244
REMARK  102  A    between atoms: _244  and  _245
REMARK  103  A    between atoms: _244  and  _247
REMARK  104  A    between atoms: _247  and  _248
REMARK  105  A    between atoms: _251  and  _253
REMARK  106  A    between atoms: _253  and  _254
REMARK  107  A    between atoms: _256  and  _258
REMARK  108  A    between atoms: _258  and  _259
REMARK  109  A    between atoms: _258  and  _261
REMARK  110  A    between atoms: _261  and  _262
REMARK  111  A    between atoms: _262  and  _263
REMARK  112  A    between atoms: _263  and  _264
REMARK  113  A    between atoms: _273  and  _275
REMARK  114  A    between atoms: _275  and  _276
REMARK  115  A    between atoms: _275  and  _278
REMARK  116  A    between atoms: _278  and  _279
REMARK  117  A    between atoms: _279  and  _280
REMARK  118  A    between atoms: _280  and  _281
REMARK  119  A    between atoms: _290  and  _292
REMARK  120  A    between atoms: _292  and  _293
REMARK  121  A    between atoms: _292  and  _295
REMARK  122  A    between atoms: _295  and  _296
REMARK  123  A    between atoms: _299  and  _301
REMARK  124  A    between atoms: _301  and  _302
REMARK  125  A    between atoms: _301  and  _304
REMARK  126  A    between atoms: _304  and  _305
REMARK  127  A    between atoms: _308  and  _310
REMARK  128  A    between atoms: _310  and  _311
REMARK  129  A    between atoms: _310  and  _313
REMARK  130  A    between atoms: _313  and  _314
REMARK  131  A    between atoms: _317  and  _319
REMARK  132  A    between atoms: _319  and  _320
REMARK  133  A    between atoms: _319  and  _322
REMARK  134  A    between atoms: _322  and  _323
REMARK  135  A    between atoms: _326  and  _328
REMARK  136  A    between atoms: _328  and  _329
REMARK  137  A    between atoms: _328  and  _331
REMARK  138  A    between atoms: _331  and  _332
REMARK  139  A    between atoms: _335  and  _337
REMARK  140  A    between atoms: _337  and  _338
REMARK  141  A    between atoms: _340  and  _342
REMARK  142  A    between atoms: _342  and  _343
REMARK  143  A    between atoms: _346  and  _348
REMARK  144  A    between atoms: _348  and  _349
REMARK  145  A    between atoms: _348  and  _351
REMARK  146  A    between atoms: _351  and  _352
REMARK  147  A    between atoms: _355  and  _357
REMARK  148  A    between atoms: _357  and  _358
REMARK  149  A    between atoms: _357  and  _360
REMARK  150  A    between atoms: _360  and  _361
REMARK  151  A    between atoms: _364  and  _366
REMARK  152  A    between atoms: _366  and  _367
REMARK  153  A    between atoms: _366  and  _369
REMARK  154  A    between atoms: _369  and  _370
REMARK  155  A    between atoms: _373  and  _375
REMARK  156  A    between atoms: _375  and  _376
REMARK  157  A    between atoms: _375  and  _378
REMARK  158  A    between atoms: _381  and  _383
REMARK  159  A    between atoms: _383  and  _384
REMARK  160  A    between atoms: _383  and  _386
REMARK  161  A    between atoms: _386  and  _387
REMARK  162  A    between atoms: _387  and  _388
REMARK  163  A    between atoms: _388  and  _389
REMARK  164  A    between atoms: _389  and  _390
REMARK  165  A    between atoms: _394  and  _396
REMARK  166  A    between atoms: _396  and  _397
REMARK  167  A    between atoms: _396  and  _399
REMARK  168  A    between atoms: _399  and  _400
REMARK  169  A    between atoms: _400  and  _401
REMARK  170  A    between atoms: _403  and  _405
REMARK  171  A    between atoms: _405  and  _406
REMARK  172  A    between atoms: _405  and  _408
REMARK  173  A    between atoms: _408  and  _409
REMARK  174  A    between atoms: _412  and  _414
REMARK  175  A    between atoms: _414  and  _415
REMARK  176  A    between atoms: _417  and  _419
REMARK  177  A    between atoms: _419  and  _420
REMARK  178  A    between atoms: _422  and  _424
REMARK  179  A    between atoms: _424  and  _425
REMARK  180  A    between atoms: _424  and  _427
REMARK  181  A    between atoms: _427  and  _428
REMARK  182  A    between atoms: _431  and  _433
REMARK  183  A    between atoms: _433  and  _434
REMARK  184  A    between atoms: _436  and  _438
REMARK  185  A    between atoms: _438  and  _439
REMARK  186  A    between atoms: _441  and  _443
REMARK  187  A    between atoms: _443  and  _444
REMARK  188  A    between atoms: _443  and  _446
REMARK  189  A    between atoms: _446  and  _447
REMARK  190  A    between atoms: _453  and  _455
REMARK  191  A    between atoms: _455  and  _456
REMARK  192  A    between atoms: _455  and  _458
REMARK  193  A    between atoms: _458  and  _459
REMARK  194  A    between atoms: _462  and  _464
REMARK  195  A    between atoms: _464  and  _465
REMARK  196  A    between atoms: _464  and  _467
REMARK  197  A    between atoms: _470  and  _472
REMARK  198  A    between atoms: _472  and  _473
REMARK  199  A    between atoms: _472  and  _475
REMARK  200  A    between atoms: _475  and  _476
REMARK  201  A    between atoms: _480  and  _481
REMARK  202  A    between atoms: _486  and  _488
REMARK  203  A    between atoms: _488  and  _489
REMARK  204  A    between atoms: _488  and  _491
REMARK  205  A    between atoms: _491  and  _492
REMARK  206  A    between atoms: _496  and  _497
REMARK  207  A    between atoms: _502  and  _504
REMARK  208  A    between atoms: _504  and  _505
REMARK  209  A    between atoms: _504  and  _507
REMARK  210  A    between atoms: _510  and  _512
REMARK  211  A    between atoms: _512  and  _513
REMARK  212  A    between atoms: _512  and  _515
REMARK  213  A    between atoms: _515  and  _516
REMARK  214  A    between atoms: _521  and  _523
REMARK  215  A    between atoms: _523  and  _524
REMARK  216  A    between atoms: _523  and  _526
REMARK  217  A    between atoms: _526  and  _527
REMARK  218  A    between atoms: _530  and  _532
REMARK  219  A    between atoms: _532  and  _533
REMARK  220  A    between atoms: _532  and  _535
REMARK  221  A    between atoms: _535  and  _536
REMARK  222  A    between atoms: _539  and  _541
REMARK  223  A    between atoms: _541  and  _542
REMARK  224  A    between atoms: _544  and  _546
REMARK  225  A    between atoms: _546  and  _547
REMARK  226  A    between atoms: _546  and  _549
REMARK  227  A    between atoms: _549  and  _550
REMARK  228  A    between atoms: _550  and  _551
REMARK  229  A    between atoms: _551  and  _552
REMARK                            x       y       z     vdW  Elec       q    Type
REMARK                         _______ _______ _______ _____ _____    ______ ____
ROOT
ATOM      1  O   HOH     1      12.754  15.921  13.859  0.00  0.00    +0.000 OA
ENDROOT
TORSDOF 0
REMARK  Name = ../refined-set-2016/1ec2/1ec2_pocket.pdb
REMARK  229 active torsions:
REMARK  status: ('A' for Active; 'I' for Inactive)
REMARK    1  A    between atoms: _1  and  _3
REMARK    2  A    between atoms: _3  and  _4
REMARK    3  A    between atoms: _3  and  _6
REMARK    4  A    between atoms: _6  and  _7
REMARK    5  A    between atoms: _7  and  _8
REMARK    6  A    between atoms: _8  and  _9
REMARK    7  A    between atoms: _18  and  _20
REMARK    8  A    between atoms: _20  and  _21
REMARK    9  A    between atoms: _20  and  _23
REMARK   10  A    between atoms: _23  and  _24
REMARK   11  A    between atoms: _27  and  _29
REMARK   12  A    between atoms: _29  and  _30
REMARK   13  A    between atoms: _29  and  _32
REMARK   14  A    between atoms: _32  and  _33
REMARK   15  A    between atoms: _36  and  _38
REMARK   16  A    between atoms: _38  and  _39
REMARK   17  A    between atoms: _38  and  _41
REMARK   18  A    between atoms: _41  and  _42
REMARK   19  A    between atoms: _45  and  _47
REMARK   20  A    between atoms: _47  and  _48
REMARK   21  A    between atoms: _47  and  _50
REMARK   22  A    between atoms: _50  and  _51
REMARK   23  A    between atoms: _54  and  _56
REMARK   24  A    between atoms: _56  and  _57
REMARK   25  A    between atoms: _59  and  _61
REMARK   26  A    between atoms: _61  and  _62
REMARK   27  A    between atoms: _65  and  _67
REMARK   28  A    between atoms: _67  and  _68
REMARK   29  A    between atoms: _67  and  _70
REMARK   30  A    between atoms: _70  and  _71
REMARK   31  A    between atoms: _74  and  _76
REMARK   32  A    between atoms: _76  and  _77
REMARK   33  A    between atoms: _76  and  _79
REMARK   34  A    between atoms: _79  and  _80
REMARK   35  A    between atoms: _83  and  _85
REMARK   36  A    between atoms: _85  and  _86
REMARK   37  A    between atoms: _85  and  _88
REMARK   38  A    between atoms: _88  and  _89
REMARK   39  A    between atoms: _92  and  _94
REMARK   40  A    between atoms: _94  and  _95
REMARK   41  A    between atoms: _94  and  _97
REMARK   42  A    between atoms: _100  and  _102
REMARK   43  A    between atoms: _102  and  _103
REMARK   44  A    between atoms: _102  and  _105
REMARK   45  A    between atoms: _105  and  _106
REMARK   46  A    between atoms: _106  and  _107
REMARK   47  A    between atoms: _107  and  _108
REMARK   48  A    between atoms: _108  and  _109
REMARK   49  A    between atoms: _113  and  _115
REMARK   50  A    between atoms: _115  and  _116
REMARK   51  A    between atoms: _115  and  _118
REMARK   52  A    between atoms: _118  and  _119
REMARK   53  A    between atoms: _119  and  _120
REMARK   54  A    between atoms: _122  and  _124
REMARK   55  A    between atoms: _124  and  _125
REMARK   56  A    between atoms: _124  and  _127
REMARK   57  A    between atoms: _127  and  _128
REMARK   58  A    between atoms: _131  and  _133
REMARK   59  A    between atoms: _133  and  _134
REMARK   60  A    between atoms: _136  and  _138
REMARK   61  A    between atoms: _138  and  _139
REMARK   62  A    between atoms: _141  and  _143
REMARK   63  A    between atoms: _143  and  _144
REMARK   64  A    between atoms: _143  and  _146
REMARK   65  A    between atoms: _146  and  _147
REMARK   66  A    between atoms: _150  and  _152
REMARK   67  A    between atoms: _152  and  _153
REMARK   68  A    between atoms: _155  and  _157
REMARK   69  A    between atoms: _157  and  _158
REMARK   70  A    between atoms: _160  and  _162
REMARK   71  A    between atoms: _162  and  _163
REMARK   72  A    between atoms: _162  and  _165
REMARK   73  A    between atoms: _165  and  _166
REMARK   74  A    between atoms: _172  and  _174
REMARK   75  A    between atoms: _174  and  _175
REMARK   76  A    between atoms: _174  and  _177
REMARK   77  A    between atoms: _177  and  _178
REMARK   78  A    between atoms: _181  and  _183
REMARK   79  A    between atoms: _183  and  _184
REMARK   80  A    between atoms: _183  and  _186
REMARK   81  A    between atoms: _189  and  _191
REMARK   82  A    between atoms: _191  and  _192
REMARK   83  A    between atoms: _191  and  _194
REMARK   84  A    between atoms: _194  and  _195
REMARK   85  A    between atoms: _198  and  _200
REMARK   86  A    between atoms: _200  and  _201
REMARK   87  A    between atoms: _200  and  _203
REMARK   88  A    between atoms: _203  and  _204
REMARK   89  A    between atoms: _208  and  _209
REMARK   90  A    between atoms: _214  and  _216
REMARK   91  A    between atoms: _216  and  _217
REMARK   92  A    between atoms: _216  and  _219
REMARK   93  A    between atoms: _222  and  _224
REMARK   94  A    between atoms: _224  and  _225
REMARK   95  A    between atoms: _224  and  _227
REMARK   96  A    between atoms: _227  and  _228
REMARK   97  A    between atoms: _233  and  _235
REMARK   98  A    between atoms: _235  and  _236
REMARK   99  A    between atoms: _235  and  _238
REMARK  100  A    between atoms: _238  and  _239
REMARK  101  A    between atoms: _242  and  _244
REMARK  102  A    between atoms: _244  and  _245
REMARK  103  A    between atoms: _244  and  _247
REMARK  104  A    between atoms: _247  and  _248
REMARK  105  A    between atoms: _251  and  _253
REMARK  106  A    between atoms: _253  and  _254
REMARK  107  A    between atoms: _256  and  _258
REMARK  108  A    between atoms: _258  and  _259
REMARK  109  A    between atoms: _258  and  _261
REMARK  110  A    between atoms: _261  and  _262
REMARK  111  A    between atoms: _262  and  _263
REMARK  112  A    between atoms: _263  and  _264
REMARK  113  A    between atoms: _273  and  _275
REMARK  114  A    between atoms: _275  and  _276
REMARK  115  A    between atoms: _275  and  _278
REMARK  116  A    between atoms: _278  and  _279
REMARK  117  A    between atoms: _279  and  _280
REMARK  118  A    between atoms: _280  and  _281
REMARK  119  A    between atoms: _290  and  _292
REMARK  120  A    between atoms: _292  and  _293
REMARK  121  A    between atoms: _292  and  _295
REMARK  122  A    between atoms: _295  and  _296
REMARK  123  A    between atoms: _299  and  _301
REMARK  124  A    between atoms: _301  and  _302
REMARK  125  A    between atoms: _301  and  _304
REMARK  126  A    between atoms: _304  and  _305
REMARK  127  A    between atoms: _308  and  _310
REMARK  128  A    between atoms: _310  and  _311
REMARK  129  A    between atoms: _310  and  _313
REMARK  130  A    between atoms: _313  and  _314
REMARK  131  A    between atoms: _317  and  _319
REMARK  132  A    between atoms: _319  and  _320
REMARK  133  A    between atoms: _319  and  _322
REMARK  134  A    between atoms: _322  and  _323
REMARK  135  A    between atoms: _326  and  _328
REMARK  136  A    between atoms: _328  and  _329
REMARK  137  A    between atoms: _328  and  _331
REMARK  138  A    between atoms: _331  and  _332
REMARK  139  A    between atoms: _335  and  _337
REMARK  140  A    between atoms: _337  and  _338
REMARK  141  A    between atoms: _340  and  _342
REMARK  142  A    between atoms: _342  and  _343
REMARK  143  A    between atoms: _346  and  _348
REMARK  144  A    between atoms: _348  and  _349
REMARK  145  A    between atoms: _348  and  _351
REMARK  146  A    between atoms: _351  and  _352
REMARK  147  A    between atoms: _355  and  _357
REMARK  148  A    between atoms: _357  and  _358
REMARK  149  A    between atoms: _357  and  _360
REMARK  150  A    between atoms: _360  and  _361
REMARK  151  A    between atoms: _364  and  _366
REMARK  152  A    between atoms: _366  and  _367
REMARK  153  A    between atoms: _366  and  _369
REMARK  154  A    between atoms: _369  and  _370
REMARK  155  A    between atoms: _373  and  _375
REMARK  156  A    between atoms: _375  and  _376
REMARK  157  A    between atoms: _375  and  _378
REMARK  158  A    between atoms: _381  and  _383
REMARK  159  A    between atoms: _383  and  _384
REMARK  160  A    between atoms: _383  and  _386
REMARK  161  A    between atoms: _386  and  _387
REMARK  162  A    between atoms: _387  and  _388
REMARK  163  A    between atoms: _388  and  _389
REMARK  164  A    between atoms: _389  and  _390
REMARK  165  A    between atoms: _394  and  _396
REMARK  166  A    between atoms: _396  and  _397
REMARK  167  A    between atoms: _396  and  _399
REMARK  168  A    between atoms: _399  and  _400
REMARK  169  A    between atoms: _400  and  _401
REMARK  170  A    between atoms: _403  and  _405
REMARK  171  A    between atoms: _405  and  _406
REMARK  172  A    between atoms: _405  and  _408
REMARK  173  A    between atoms: _408  and  _409
REMARK  174  A    between atoms: _412  and  _414
REMARK  175  A    between atoms: _414  and  _415
REMARK  176  A    between atoms: _417  and  _419
REMARK  177  A    between atoms: _419  and  _420
REMARK  178  A    between atoms: _422  and  _424
REMARK  179  A    between atoms: _424  and  _425
REMARK  180  A    between atoms: _424  and  _427
REMARK  181  A    between atoms: _427  and  _428
REMARK  182  A    between atoms: _431  and  _433
REMARK  183  A    between atoms: _433  and  _434
REMARK  184  A    between atoms: _436  and  _438
REMARK  185  A    between atoms: _438  and  _439
REMARK  186  A    between atoms: _441  and  _443
REMARK  187  A    between atoms: _443  and  _444
REMARK  188  A    between atoms: _443  and  _446
REMARK  189  A    between atoms: _446  and  _447
REMARK  190  A    between atoms: _453  and  _455
REMARK  191  A    between atoms: _455  and  _456
REMARK  192  A    between atoms: _455  and  _458
REMARK  193  A    between atoms: _458  and  _459
REMARK  194  A    between atoms: _462  and  _464
REMARK  195  A    between atoms: _464  and  _465
REMARK  196  A    between atoms: _464  and  _467
REMARK  197  A    between atoms: _470  and  _472
REMARK  198  A    between atoms: _472  and  _473
REMARK  199  A    between atoms: _472  and  _475
REMARK  200  A    between atoms: _475  and  _476
REMARK  201  A    between atoms: _480  and  _481
REMARK  202  A    between atoms: _486  and  _488
REMARK  203  A    between atoms: _488  and  _489
REMARK  204  A    between atoms: _488  and  _491
REMARK  205  A    between atoms: _491  and  _492
REMARK  206  A    between atoms: _496  and  _497
REMARK  207  A    between atoms: _502  and  _504
REMARK  208  A    between atoms: _504  and  _505
REMARK  209  A    between atoms: _504  and  _507
REMARK  210  A    between atoms: _510  and  _512
REMARK  211  A    between atoms: _512  and  _513
REMARK  212  A    between atoms: _512  and  _515
REMARK  213  A    between atoms: _515  and  _516
REMARK  214  A    between atoms: _521  and  _523
REMARK  215  A    between atoms: _523  and  _524
REMARK  216  A    between atoms: _523  and  _526
REMARK  217  A    between atoms: _526  and  _527
REMARK  218  A    between atoms: _530  and  _532
REMARK  219  A    between atoms: _532  and  _533
REMARK  220  A    between atoms: _532  and  _535
REMARK  221  A    between atoms: _535  and  _536
REMARK  222  A    between atoms: _539  and  _541
REMARK  223  A    between atoms: _541  and  _542
REMARK  224  A    between atoms: _544  and  _546
REMARK  225  A    between atoms: _546  and  _547
REMARK  226  A    between atoms: _546  and  _549
REMARK  227  A    between atoms: _549  and  _550
REMARK  228  A    between atoms: _550  and  _551
REMARK  229  A    between atoms: _551  and  _552
REMARK                            x       y       z     vdW  Elec       q    Type
REMARK                         _______ _______ _______ _____ _____    ______ ____
ROOT
ATOM      1  O   HOH     1       3.368  26.942  -0.390  0.00  0.00    +0.000 OA
ENDROOT
TORSDOF 0
REMARK  Name = ../refined-set-2016/1ec2/1ec2_pocket.pdb
REMARK  229 active torsions:
REMARK  status: ('A' for Active; 'I' for Inactive)
REMARK    1  A    between atoms: _1  and  _3
REMARK    2  A    between atoms: _3  and  _4
REMARK    3  A    between atoms: _3  and  _6
REMARK    4  A    between atoms: _6  and  _7
REMARK    5  A    between atoms: _7  and  _8
REMARK    6  A    between atoms: _8  and  _9
REMARK    7  A    between atoms: _18  and  _20
REMARK    8  A    between atoms: _20  and  _21
REMARK    9  A    between atoms: _20  and  _23
REMARK   10  A    between atoms: _23  and  _24
REMARK   11  A    between atoms: _27  and  _29
REMARK   12  A    between atoms: _29  and  _30
REMARK   13  A    between atoms: _29  and  _32
REMARK   14  A    between atoms: _32  and  _33
REMARK   15  A    between atoms: _36  and  _38
REMARK   16  A    between atoms: _38  and  _39
REMARK   17  A    between atoms: _38  and  _41
REMARK   18  A    between atoms: _41  and  _42
REMARK   19  A    between atoms: _45  and  _47
REMARK   20  A    between atoms: _47  and  _48
REMARK   21  A    between atoms: _47  and  _50
REMARK   22  A    between atoms: _50  and  _51
REMARK   23  A    between atoms: _54  and  _56
REMARK   24  A    between atoms: _56  and  _57
REMARK   25  A    between atoms: _59  and  _61
REMARK   26  A    between atoms: _61  and  _62
REMARK   27  A    between atoms: _65  and  _67
REMARK   28  A    between atoms: _67  and  _68
REMARK   29  A    between atoms: _67  and  _70
REMARK   30  A    between atoms: _70  and  _71
REMARK   31  A    between atoms: _74  and  _76
REMARK   32  A    between atoms: _76  and  _77
REMARK   33  A    between atoms: _76  and  _79
REMARK   34  A    between atoms: _79  and  _80
REMARK   35  A    between atoms: _83  and  _85
REMARK   36  A    between atoms: _85  and  _86
REMARK   37  A    between atoms: _85  and  _88
REMARK   38  A    between atoms: _88  and  _89
REMARK   39  A    between atoms: _92  and  _94
REMARK   40  A    between atoms: _94  and  _95
REMARK   41  A    between atoms: _94  and  _97
REMARK   42  A    between atoms: _100  and  _102
REMARK   43  A    between atoms: _102  and  _103
REMARK   44  A    between atoms: _102  and  _105
REMARK   45  A    between atoms: _105  and  _106
REMARK   46  A    between atoms: _106  and  _107
REMARK   47  A    between atoms: _107  and  _108
REMARK   48  A    between atoms: _108  and  _109
REMARK   49  A    between atoms: _113  and  _115
REMARK   50  A    between atoms: _115  and  _116
REMARK   51  A    between atoms: _115  and  _118
REMARK   52  A    between atoms: _118  and  _119
REMARK   53  A    between atoms: _119  and  _120
REMARK   54  A    between atoms: _122  and  _124
REMARK   55  A    between atoms: _124  and  _125
REMARK   56  A    between atoms: _124  and  _127
REMARK   57  A    between atoms: _127  and  _128
REMARK   58  A    between atoms: _131  and  _133
REMARK   59  A    between atoms: _133  and  _134
REMARK   60  A    between atoms: _136  and  _138
REMARK   61  A    between atoms: _138  and  _139
REMARK   62  A    between atoms: _141  and  _143
REMARK   63  A    between atoms: _143  and  _144
REMARK   64  A    between atoms: _143  and  _146
REMARK   65  A    between atoms: _146  and  _147
REMARK   66  A    between atoms: _150  and  _152
REMARK   67  A    between atoms: _152  and  _153
REMARK   68  A    between atoms: _155  and  _157
REMARK   69  A    between atoms: _157  and  _158
REMARK   70  A    between atoms: _160  and  _162
REMARK   71  A    between atoms: _162  and  _163
REMARK   72  A    between atoms: _162  and  _165
REMARK   73  A    between atoms: _165  and  _166
REMARK   74  A    between atoms: _172  and  _174
REMARK   75  A    between atoms: _174  and  _175
REMARK   76  A    between atoms: _174  and  _177
REMARK   77  A    between atoms: _177  and  _178
REMARK   78  A    between atoms: _181  and  _183
REMARK   79  A    between atoms: _183  and  _184
REMARK   80  A    between atoms: _183  and  _186
REMARK   81  A    between atoms: _189  and  _191
REMARK   82  A    between atoms: _191  and  _192
REMARK   83  A    between atoms: _191  and  _194
REMARK   84  A    between atoms: _194  and  _195
REMARK   85  A    between atoms: _198  and  _200
REMARK   86  A    between atoms: _200  and  _201
REMARK   87  A    between atoms: _200  and  _203
REMARK   88  A    between atoms: _203  and  _204
REMARK   89  A    between atoms: _208  and  _209
REMARK   90  A    between atoms: _214  and  _216
REMARK   91  A    between atoms: _216  and  _217
REMARK   92  A    between atoms: _216  and  _219
REMARK   93  A    between atoms: _222  and  _224
REMARK   94  A    between atoms: _224  and  _225
REMARK   95  A    between atoms: _224  and  _227
REMARK   96  A    between atoms: _227  and  _228
REMARK   97  A    between atoms: _233  and  _235
REMARK   98  A    between atoms: _235  and  _236
REMARK   99  A    between atoms: _235  and  _238
REMARK  100  A    between atoms: _238  and  _239
REMARK  101  A    between atoms: _242  and  _244
REMARK  102  A    between atoms: _244  and  _245
REMARK  103  A    between atoms: _244  and  _247
REMARK  104  A    between atoms: _247  and  _248
REMARK  105  A    between atoms: _251  and  _253
REMARK  106  A    between atoms: _253  and  _254
REMARK  107  A    between atoms: _256  and  _258
REMARK  108  A    between atoms: _258  and  _259
REMARK  109  A    between atoms: _258  and  _261
REMARK  110  A    between atoms: _261  and  _262
REMARK  111  A    between atoms: _262  and  _263
REMARK  112  A    between atoms: _263  and  _264
REMARK  113  A    between atoms: _273  and  _275
REMARK  114  A    between atoms: _275  and  _276
REMARK  115  A    between atoms: _275  and  _278
REMARK  116  A    between atoms: _278  and  _279
REMARK  117  A    between atoms: _279  and  _280
REMARK  118  A    between atoms: _280  and  _281
REMARK  119  A    between atoms: _290  and  _292
REMARK  120  A    between atoms: _292  and  _293
REMARK  121  A    between atoms: _292  and  _295
REMARK  122  A    between atoms: _295  and  _296
REMARK  123  A    between atoms: _299  and  _301
REMARK  124  A    between atoms: _301  and  _302
REMARK  125  A    between atoms: _301  and  _304
REMARK  126  A    between atoms: _304  and  _305
REMARK  127  A    between atoms: _308  and  _310
REMARK  128  A    between atoms: _310  and  _311
REMARK  129  A    between atoms: _310  and  _313
REMARK  130  A    between atoms: _313  and  _314
REMARK  131  A    between atoms: _317  and  _319
REMARK  132  A    between atoms: _319  and  _320
REMARK  133  A    between atoms: _319  and  _322
REMARK  134  A    between atoms: _322  and  _323
REMARK  135  A    between atoms: _326  and  _328
REMARK  136  A    between atoms: _328  and  _329
REMARK  137  A    between atoms: _328  and  _331
REMARK  138  A    between atoms: _331  and  _332
REMARK  139  A    between atoms: _335  and  _337
REMARK  140  A    between atoms: _337  and  _338
REMARK  141  A    between atoms: _340  and  _342
REMARK  142  A    between atoms: _342  and  _343
REMARK  143  A    between atoms: _346  and  _348
REMARK  144  A    between atoms: _348  and  _349
REMARK  145  A    between atoms: _348  and  _351
REMARK  146  A    between atoms: _351  and  _352
REMARK  147  A    between atoms: _355  and  _357
REMARK  148  A    between atoms: _357  and  _358
REMARK  149  A    between atoms: _357  and  _360
REMARK  150  A    between atoms: _360  and  _361
REMARK  151  A    between atoms: _364  and  _366
REMARK  152  A    between atoms: _366  and  _367
REMARK  153  A    between atoms: _366  and  _369
REMARK  154  A    between atoms: _369  and  _370
REMARK  155  A    between atoms: _373  and  _375
REMARK  156  A    between atoms: _375  and  _376
REMARK  157  A    between atoms: _375  and  _378
REMARK  158  A    between atoms: _381  and  _383
REMARK  159  A    between atoms: _383  and  _384
REMARK  160  A    between atoms: _383  and  _386
REMARK  161  A    between atoms: _386  and  _387
REMARK  162  A    between atoms: _387  and  _388
REMARK  163  A    between atoms: _388  and  _389
REMARK  164  A    between atoms: _389  and  _390
REMARK  165  A    between atoms: _394  and  _396
REMARK  166  A    between atoms: _396  and  _397
REMARK  167  A    between atoms: _396  and  _399
REMARK  168  A    between atoms: _399  and  _400
REMARK  169  A    between atoms: _400  and  _401
REMARK  170  A    between atoms: _403  and  _405
REMARK  171  A    between atoms: _405  and  _406
REMARK  172  A    between atoms: _405  and  _408
REMARK  173  A    between atoms: _408  and  _409
REMARK  174  A    between atoms: _412  and  _414
REMARK  175  A    between atoms: _414  and  _415
REMARK  176  A    between atoms: _417  and  _419
REMARK  177  A    between atoms: _419  and  _420
REMARK  178  A    between atoms: _422  and  _424
REMARK  179  A    between atoms: _424  and  _425
REMARK  180  A    between atoms: _424  and  _427
REMARK  181  A    between atoms: _427  and  _428
REMARK  182  A    between atoms: _431  and  _433
REMARK  183  A    between atoms: _433  and  _434
REMARK  184  A    between atoms: _436  and  _438
REMARK  185  A    between atoms: _438  and  _439
REMARK  186  A    between atoms: _441  and  _443
REMARK  187  A    between atoms: _443  and  _444
REMARK  188  A    between atoms: _443  and  _446
REMARK  189  A    between atoms: _446  and  _447
REMARK  190  A    between atoms: _453  and  _455
REMARK  191  A    between atoms: _455  and  _456
REMARK  192  A    between atoms: _455  and  _458
REMARK  193  A    between atoms: _458  and  _459
REMARK  194  A    between atoms: _462  and  _464
REMARK  195  A    between atoms: _464  and  _465
REMARK  196  A    between atoms: _464  and  _467
REMARK  197  A    between atoms: _470  and  _472
REMARK  198  A    between atoms: _472  and  _473
REMARK  199  A    between atoms: _472  and  _475
REMARK  200  A    between atoms: _475  and  _476
REMARK  201  A    between atoms: _480  and  _481
REMARK  202  A    between atoms: _486  and  _488
REMARK  203  A    between atoms: _488  and  _489
REMARK  204  A    between atoms: _488  and  _491
REMARK  205  A    between atoms: _491  and  _492
REMARK  206  A    between atoms: _496  and  _497
REMARK  207  A    between atoms: _502  and  _504
REMARK  208  A    between atoms: _504  and  _505
REMARK  209  A    between atoms: _504  and  _507
REMARK  210  A    between atoms: _510  and  _512
REMARK  211  A    between atoms: _512  and  _513
REMARK  212  A    between atoms: _512  and  _515
REMARK  213  A    between atoms: _515  and  _516
REMARK  214  A    between atoms: _521  and  _523
REMARK  215  A    between atoms: _523  and  _524
REMARK  216  A    between atoms: _523  and  _526
REMARK  217  A    between atoms: _526  and  _527
REMARK  218  A    between atoms: _530  and  _532
REMARK  219  A    between atoms: _532  and  _533
REMARK  220  A    between atoms: _532  and  _535
REMARK  221  A    between atoms: _535  and  _536
REMARK  222  A    between atoms: _539  and  _541
REMARK  223  A    between atoms: _541  and  _542
REMARK  224  A    between atoms: _544  and  _546
REMARK  225  A    between atoms: _546  and  _547
REMARK  226  A    between atoms: _546  and  _549
REMARK  227  A    between atoms: _549  and  _550
REMARK  228  A    between atoms: _550  and  _551
REMARK  229  A    between atoms: _551  and  _552
REMARK                            x       y       z     vdW  Elec       q    Type
REMARK                         _______ _______ _______ _____ _____    ______ ____
ROOT
ATOM      1  O   HOH     1      22.698  15.917   5.016  0.00  0.00    +0.000 OA
ENDROOT
TORSDOF 0
