REMARK  Name = ../refined-set-2016/2qrp/2qrp_pocket.pdb
REMARK  269 active torsions:
REMARK  status: ('A' for Active; 'I' for Inactive)
REMARK    1  A    between atoms: _1  and  _3
REMARK    2  A    between atoms: _3  and  _4
REMARK    3  A    between atoms: _3  and  _6
REMARK    4  A    between atoms: _6  and  _7
REMARK    5  A    between atoms: _12  and  _13
REMARK    6  A    between atoms: _15  and  _17
REMARK    7  A    between atoms: _17  and  _18
REMARK    8  A    between atoms: _17  and  _20
REMARK    9  A    between atoms: _20  and  _21
REMARK   10  A    between atoms: _24  and  _26
REMARK   11  A    between atoms: _26  and  _27
REMARK   12  A    between atoms: _26  and  _29
REMARK   13  A    between atoms: _29  and  _30
REMARK   14  A    between atoms: _30  and  _31
REMARK   15  A    between atoms: _34  and  _36
REMARK   16  A    between atoms: _36  and  _37
REMARK   17  A    between atoms: _39  and  _41
REMARK   18  A    between atoms: _41  and  _42
REMARK   19  A    between atoms: _41  and  _44
REMARK   20  A    between atoms: _44  and  _45
REMARK   21  A    between atoms: _50  and  _52
REMARK   22  A    between atoms: _52  and  _53
REMARK   23  A    between atoms: _55  and  _57
REMARK   24  A    between atoms: _57  and  _58
REMARK   25  A    between atoms: _60  and  _62
REMARK   26  A    between atoms: _62  and  _63
REMARK   27  A    between atoms: _62  and  _65
REMARK   28  A    between atoms: _65  and  _66
REMARK   29  A    between atoms: _69  and  _71
REMARK   30  A    between atoms: _71  and  _72
REMARK   31  A    between atoms: _74  and  _76
REMARK   32  A    between atoms: _76  and  _77
REMARK   33  A    between atoms: _76  and  _79
REMARK   34  A    between atoms: _79  and  _80
REMARK   35  A    between atoms: _80  and  _81
REMARK   36  A    between atoms: _81  and  _82
REMARK   37  A    between atoms: _91  and  _93
REMARK   38  A    between atoms: _93  and  _94
REMARK   39  A    between atoms: _93  and  _96
REMARK   40  A    between atoms: _96  and  _97
REMARK   41  A    between atoms: _100  and  _102
REMARK   42  A    between atoms: _102  and  _103
REMARK   43  A    between atoms: _106  and  _108
REMARK   44  A    between atoms: _108  and  _109
REMARK   45  A    between atoms: _108  and  _111
REMARK   46  A    between atoms: _111  and  _112
REMARK   47  A    between atoms: _118  and  _120
REMARK   48  A    between atoms: _120  and  _121
REMARK   49  A    between atoms: _120  and  _123
REMARK   50  A    between atoms: _123  and  _124
REMARK   51  A    between atoms: _127  and  _129
REMARK   52  A    between atoms: _129  and  _130
REMARK   53  A    between atoms: _129  and  _132
REMARK   54  A    between atoms: _132  and  _133
REMARK   55  A    between atoms: _138  and  _139
REMARK   56  A    between atoms: _142  and  _143
REMARK   57  A    between atoms: _148  and  _150
REMARK   58  A    between atoms: _150  and  _151
REMARK   59  A    between atoms: _150  and  _153
REMARK   60  A    between atoms: _153  and  _154
REMARK   61  A    between atoms: _159  and  _161
REMARK   62  A    between atoms: _161  and  _162
REMARK   63  A    between atoms: _161  and  _164
REMARK   64  A    between atoms: _164  and  _165
REMARK   65  A    between atoms: _168  and  _170
REMARK   66  A    between atoms: _170  and  _171
REMARK   67  A    between atoms: _170  and  _173
REMARK   68  A    between atoms: _173  and  _174
REMARK   69  A    between atoms: _179  and  _181
REMARK   70  A    between atoms: _181  and  _182
REMARK   71  A    between atoms: _181  and  _184
REMARK   72  A    between atoms: _184  and  _185
REMARK   73  A    between atoms: _191  and  _193
REMARK   74  A    between atoms: _193  and  _194
REMARK   75  A    between atoms: _193  and  _196
REMARK   76  A    between atoms: _196  and  _197
REMARK   77  A    between atoms: _203  and  _205
REMARK   78  A    between atoms: _205  and  _206
REMARK   79  A    between atoms: _205  and  _208
REMARK   80  A    between atoms: _208  and  _209
REMARK   81  A    between atoms: _209  and  _210
REMARK   82  A    between atoms: _213  and  _215
REMARK   83  A    between atoms: _215  and  _216
REMARK   84  A    between atoms: _215  and  _218
REMARK   85  A    between atoms: _218  and  _219
REMARK   86  A    between atoms: _219  and  _220
REMARK   87  A    between atoms: _220  and  _221
REMARK   88  A    between atoms: _230  and  _232
REMARK   89  A    between atoms: _232  and  _233
REMARK   90  A    between atoms: _232  and  _235
REMARK   91  A    between atoms: _235  and  _236
REMARK   92  A    between atoms: _236  and  _237
REMARK   93  A    between atoms: _240  and  _242
REMARK   94  A    between atoms: _242  and  _243
REMARK   95  A    between atoms: _242  and  _245
REMARK   96  A    between atoms: _245  and  _246
REMARK   97  A    between atoms: _251  and  _253
REMARK   98  A    between atoms: _253  and  _254
REMARK   99  A    between atoms: _253  and  _256
REMARK  100  A    between atoms: _256  and  _257
REMARK  101  A    between atoms: _260  and  _262
REMARK  102  A    between atoms: _262  and  _263
REMARK  103  A    between atoms: _262  and  _265
REMARK  104  A    between atoms: _265  and  _266
REMARK  105  A    between atoms: _269  and  _271
REMARK  106  A    between atoms: _271  and  _272
REMARK  107  A    between atoms: _271  and  _274
REMARK  108  A    between atoms: _274  and  _275
REMARK  109  A    between atoms: _280  and  _282
REMARK  110  A    between atoms: _282  and  _283
REMARK  111  A    between atoms: _282  and  _285
REMARK  112  A    between atoms: _285  and  _286
REMARK  113  A    between atoms: _289  and  _291
REMARK  114  A    between atoms: _291  and  _292
REMARK  115  A    between atoms: _291  and  _294
REMARK  116  A    between atoms: _294  and  _295
REMARK  117  A    between atoms: _300  and  _302
REMARK  118  A    between atoms: _302  and  _303
REMARK  119  A    between atoms: _302  and  _305
REMARK  120  A    between atoms: _305  and  _306
REMARK  121  A    between atoms: _311  and  _313
REMARK  122  A    between atoms: _313  and  _314
REMARK  123  A    between atoms: _313  and  _316
REMARK  124  A    between atoms: _316  and  _317
REMARK  125  A    between atoms: _320  and  _322
REMARK  126  A    between atoms: _322  and  _323
REMARK  127  A    between atoms: _322  and  _325
REMARK  128  A    between atoms: _328  and  _330
REMARK  129  A    between atoms: _330  and  _331
REMARK  130  A    between atoms: _330  and  _333
REMARK  131  A    between atoms: _333  and  _334
REMARK  132  A    between atoms: _337  and  _339
REMARK  133  A    between atoms: _339  and  _340
REMARK  134  A    between atoms: _339  and  _342
REMARK  135  A    between atoms: _342  and  _343
REMARK  136  A    between atoms: _343  and  _344
REMARK  137  A    between atoms: _347  and  _349
REMARK  138  A    between atoms: _349  and  _350
REMARK  139  A    between atoms: _353  and  _355
REMARK  140  A    between atoms: _355  and  _356
REMARK  141  A    between atoms: _355  and  _358
REMARK  142  A    between atoms: _358  and  _359
REMARK  143  A    between atoms: _362  and  _364
REMARK  144  A    between atoms: _364  and  _365
REMARK  145  A    between atoms: _364  and  _367
REMARK  146  A    between atoms: _367  and  _368
REMARK  147  A    between atoms: _368  and  _369
REMARK  148  A    between atoms: _372  and  _374
REMARK  149  A    between atoms: _374  and  _375
REMARK  150  A    between atoms: _374  and  _377
REMARK  151  A    between atoms: _377  and  _378
REMARK  152  A    between atoms: _383  and  _385
REMARK  153  A    between atoms: _385  and  _386
REMARK  154  A    between atoms: _388  and  _390
REMARK  155  A    between atoms: _390  and  _391
REMARK  156  A    between atoms: _390  and  _393
REMARK  157  A    between atoms: _396  and  _398
REMARK  158  A    between atoms: _398  and  _399
REMARK  159  A    between atoms: _402  and  _404
REMARK  160  A    between atoms: _404  and  _405
REMARK  161  A    between atoms: _404  and  _407
REMARK  162  A    between atoms: _407  and  _408
REMARK  163  A    between atoms: _413  and  _415
REMARK  164  A    between atoms: _415  and  _416
REMARK  165  A    between atoms: _415  and  _418
REMARK  166  A    between atoms: _418  and  _419
REMARK  167  A    between atoms: _419  and  _420
REMARK  168  A    between atoms: _420  and  _421
REMARK  169  A    between atoms: _421  and  _422
REMARK  170  A    between atoms: _426  and  _428
REMARK  171  A    between atoms: _428  and  _429
REMARK  172  A    between atoms: _428  and  _431
REMARK  173  A    between atoms: _431  and  _432
REMARK  174  A    between atoms: _435  and  _437
REMARK  175  A    between atoms: _437  and  _438
REMARK  176  A    between atoms: _437  and  _440
REMARK  177  A    between atoms: _440  and  _441
REMARK  178  A    between atoms: _446  and  _448
REMARK  179  A    between atoms: _448  and  _449
REMARK  180  A    between atoms: _451  and  _453
REMARK  181  A    between atoms: _453  and  _454
REMARK  182  A    between atoms: _453  and  _456
REMARK  183  A    between atoms: _456  and  _457
REMARK  184  A    between atoms: _457  and  _458
REMARK  185  A    between atoms: _458  and  _459
REMARK  186  A    between atoms: _459  and  _460
REMARK  187  A    between atoms: _464  and  _466
REMARK  188  A    between atoms: _466  and  _467
REMARK  189  A    between atoms: _466  and  _469
REMARK  190  A    between atoms: _469  and  _470
REMARK  191  A    between atoms: _470  and  _471
REMARK  192  A    between atoms: _471  and  _472
REMARK  193  A    between atoms: _481  and  _483
REMARK  194  A    between atoms: _483  and  _484
REMARK  195  A    between atoms: _483  and  _486
REMARK  196  A    between atoms: _486  and  _487
REMARK  197  A    between atoms: _492  and  _494
REMARK  198  A    between atoms: _494  and  _495
REMARK  199  A    between atoms: _494  and  _497
REMARK  200  A    between atoms: _497  and  _498
REMARK  201  A    between atoms: _503  and  _504
REMARK  202  A    between atoms: _506  and  _508
REMARK  203  A    between atoms: _508  and  _509
REMARK  204  A    between atoms: _508  and  _511
REMARK  205  A    between atoms: _511  and  _512
REMARK  206  A    between atoms: _512  and  _513
REMARK  207  A    between atoms: _513  and  _514
REMARK  208  A    between atoms: _514  and  _515
REMARK  209  A    between atoms: _519  and  _521
REMARK  210  A    between atoms: _521  and  _522
REMARK  211  A    between atoms: _521  and  _524
REMARK  212  A    between atoms: _524  and  _525
REMARK  213  A    between atoms: _527  and  _529
REMARK  214  A    between atoms: _529  and  _530
REMARK  215  A    between atoms: _529  and  _532
REMARK  216  A    between atoms: _532  and  _533
REMARK  217  A    between atoms: _536  and  _538
REMARK  218  A    between atoms: _538  and  _539
REMARK  219  A    between atoms: _538  and  _541
REMARK  220  A    between atoms: _541  and  _542
REMARK  221  A    between atoms: _542  and  _543
REMARK  222  A    between atoms: _546  and  _548
REMARK  223  A    between atoms: _548  and  _549
REMARK  224  A    between atoms: _552  and  _554
REMARK  225  A    between atoms: _554  and  _555
REMARK  226  A    between atoms: _554  and  _557
REMARK  227  A    between atoms: _557  and  _558
REMARK  228  A    between atoms: _560  and  _562
REMARK  229  A    between atoms: _562  and  _563
REMARK  230  A    between atoms: _565  and  _567
REMARK  231  A    between atoms: _567  and  _568
REMARK  232  A    between atoms: _567  and  _570
REMARK  233  A    between atoms: _570  and  _571
REMARK  234  A    between atoms: _574  and  _576
REMARK  235  A    between atoms: _576  and  _577
REMARK  236  A    between atoms: _579  and  _581
REMARK  237  A    between atoms: _581  and  _582
REMARK  238  A    between atoms: _581  and  _584
REMARK  239  A    between atoms: _584  and  _585
REMARK  240  A    between atoms: _590  and  _592
REMARK  241  A    between atoms: _592  and  _593
REMARK  242  A    between atoms: _592  and  _595
REMARK  243  A    between atoms: _595  and  _596
REMARK  244  A    between atoms: _596  and  _597
REMARK  245  A    between atoms: _604  and  _605
REMARK  246  A    between atoms: _605  and  _621
REMARK  247  A    between atoms: _606  and  _608
REMARK  248  A    between atoms: _608  and  _609
REMARK  249  A    between atoms: _609  and  _610
REMARK  250  A    between atoms: _614  and  _616
REMARK  251  A    between atoms: _616  and  _617
REMARK  252  A    between atoms: _616  and  _624
REMARK  253  A    between atoms: _617  and  _618
REMARK  254  A    between atoms: _618  and  _619
REMARK  255  A    between atoms: _619  and  _620
REMARK  256  A    between atoms: _620  and  _621
REMARK  257  A    between atoms: _626  and  _628
REMARK  258  A    between atoms: _628  and  _629
REMARK  259  A    between atoms: _628  and  _631
REMARK  260  A    between atoms: _631  and  _632
REMARK  261  A    between atoms: _635  and  _637
REMARK  262  A    between atoms: _637  and  _638
REMARK  263  A    between atoms: _640  and  _642
REMARK  264  A    between atoms: _642  and  _643
REMARK  265  A    between atoms: _646  and  _648
REMARK  266  A    between atoms: _648  and  _649
REMARK  267  A    between atoms: _648  and  _651
REMARK  268  A    between atoms: _651  and  _652
REMARK  269  A    between atoms: _657  and  _658
REMARK                            x       y       z     vdW  Elec       q    Type
REMARK                         _______ _______ _______ _____ _____    ______ ____
ROOT
ATOM      1  CG  TYR A   1      32.969  11.121  35.685  0.00  0.00    -0.020 A 
ATOM      2  CD2 TYR A   1      32.586  12.462  35.750  0.00  0.00    -0.001 A 
ATOM      3  CE2 TYR A   1      32.692  13.300  34.630  0.00  0.00    +0.036 A 
ATOM      4  CZ  TYR A   1      33.187  12.792  33.439  0.00  0.00    +0.134 A 
ATOM      5  CE1 TYR A   1      33.576  11.466  33.355  0.00  0.00    +0.036 A 
ATOM      6  CD1 TYR A   1      33.467  10.639  34.474  0.00  0.00    -0.001 A 
ENDROOT
BRANCH   4   7
ATOM      7  OH  TYR A   1      33.295  13.604  32.323  0.00  0.00    -0.506 OA
ATOM      8  HH  TYR A   1      33.664  13.079  31.569  0.00  0.00    +0.292 HD
ENDBRANCH   4   7
BRANCH   1   9
ATOM      9  CB  TYR A   1      32.879  10.219  36.900  0.00  0.00    +0.051 C 
BRANCH   9  10
ATOM     10  CA  TYR A   1      34.197  10.149  37.689  0.00  0.00    +0.137 C 
BRANCH  10  11
ATOM     11  N   TYR A   1      34.229   8.993  38.576  0.00  0.00    -0.239 NA
ATOM     12  H   TYR A   1      33.375   8.754  39.119  0.00  0.00    +0.142 HD
ENDBRANCH  10  11
BRANCH  10  13
ATOM     13  C   TYR A   1      34.407  11.406  38.522  0.00  0.00    +0.224 C 
ATOM     14  O   TYR A   1      33.503  11.857  39.228  0.00  0.00    -0.287 OA
ENDBRANCH  10  13
ENDBRANCH   9  10
ENDBRANCH   1   9
TORSDOF 5
REMARK  Name = ../refined-set-2016/2qrp/2qrp_pocket.pdb
REMARK  269 active torsions:
REMARK  status: ('A' for Active; 'I' for Inactive)
REMARK    1  A    between atoms: _1  and  _3
REMARK    2  A    between atoms: _3  and  _4
REMARK    3  A    between atoms: _3  and  _6
REMARK    4  A    between atoms: _6  and  _7
REMARK    5  A    between atoms: _12  and  _13
REMARK    6  A    between atoms: _15  and  _17
REMARK    7  A    between atoms: _17  and  _18
REMARK    8  A    between atoms: _17  and  _20
REMARK    9  A    between atoms: _20  and  _21
REMARK   10  A    between atoms: _24  and  _26
REMARK   11  A    between atoms: _26  and  _27
REMARK   12  A    between atoms: _26  and  _29
REMARK   13  A    between atoms: _29  and  _30
REMARK   14  A    between atoms: _30  and  _31
REMARK   15  A    between atoms: _34  and  _36
REMARK   16  A    between atoms: _36  and  _37
REMARK   17  A    between atoms: _39  and  _41
REMARK   18  A    between atoms: _41  and  _42
REMARK   19  A    between atoms: _41  and  _44
REMARK   20  A    between atoms: _44  and  _45
REMARK   21  A    between atoms: _50  and  _52
REMARK   22  A    between atoms: _52  and  _53
REMARK   23  A    between atoms: _55  and  _57
REMARK   24  A    between atoms: _57  and  _58
REMARK   25  A    between atoms: _60  and  _62
REMARK   26  A    between atoms: _62  and  _63
REMARK   27  A    between atoms: _62  and  _65
REMARK   28  A    between atoms: _65  and  _66
REMARK   29  A    between atoms: _69  and  _71
REMARK   30  A    between atoms: _71  and  _72
REMARK   31  A    between atoms: _74  and  _76
REMARK   32  A    between atoms: _76  and  _77
REMARK   33  A    between atoms: _76  and  _79
REMARK   34  A    between atoms: _79  and  _80
REMARK   35  A    between atoms: _80  and  _81
REMARK   36  A    between atoms: _81  and  _82
REMARK   37  A    between atoms: _91  and  _93
REMARK   38  A    between atoms: _93  and  _94
REMARK   39  A    between atoms: _93  and  _96
REMARK   40  A    between atoms: _96  and  _97
REMARK   41  A    between atoms: _100  and  _102
REMARK   42  A    between atoms: _102  and  _103
REMARK   43  A    between atoms: _106  and  _108
REMARK   44  A    between atoms: _108  and  _109
REMARK   45  A    between atoms: _108  and  _111
REMARK   46  A    between atoms: _111  and  _112
REMARK   47  A    between atoms: _118  and  _120
REMARK   48  A    between atoms: _120  and  _121
REMARK   49  A    between atoms: _120  and  _123
REMARK   50  A    between atoms: _123  and  _124
REMARK   51  A    between atoms: _127  and  _129
REMARK   52  A    between atoms: _129  and  _130
REMARK   53  A    between atoms: _129  and  _132
REMARK   54  A    between atoms: _132  and  _133
REMARK   55  A    between atoms: _138  and  _139
REMARK   56  A    between atoms: _142  and  _143
REMARK   57  A    between atoms: _148  and  _150
REMARK   58  A    between atoms: _150  and  _151
REMARK   59  A    between atoms: _150  and  _153
REMARK   60  A    between atoms: _153  and  _154
REMARK   61  A    between atoms: _159  and  _161
REMARK   62  A    between atoms: _161  and  _162
REMARK   63  A    between atoms: _161  and  _164
REMARK   64  A    between atoms: _164  and  _165
REMARK   65  A    between atoms: _168  and  _170
REMARK   66  A    between atoms: _170  and  _171
REMARK   67  A    between atoms: _170  and  _173
REMARK   68  A    between atoms: _173  and  _174
REMARK   69  A    between atoms: _179  and  _181
REMARK   70  A    between atoms: _181  and  _182
REMARK   71  A    between atoms: _181  and  _184
REMARK   72  A    between atoms: _184  and  _185
REMARK   73  A    between atoms: _191  and  _193
REMARK   74  A    between atoms: _193  and  _194
REMARK   75  A    between atoms: _193  and  _196
REMARK   76  A    between atoms: _196  and  _197
REMARK   77  A    between atoms: _203  and  _205
REMARK   78  A    between atoms: _205  and  _206
REMARK   79  A    between atoms: _205  and  _208
REMARK   80  A    between atoms: _208  and  _209
REMARK   81  A    between atoms: _209  and  _210
REMARK   82  A    between atoms: _213  and  _215
REMARK   83  A    between atoms: _215  and  _216
REMARK   84  A    between atoms: _215  and  _218
REMARK   85  A    between atoms: _218  and  _219
REMARK   86  A    between atoms: _219  and  _220
REMARK   87  A    between atoms: _220  and  _221
REMARK   88  A    between atoms: _230  and  _232
REMARK   89  A    between atoms: _232  and  _233
REMARK   90  A    between atoms: _232  and  _235
REMARK   91  A    between atoms: _235  and  _236
REMARK   92  A    between atoms: _236  and  _237
REMARK   93  A    between atoms: _240  and  _242
REMARK   94  A    between atoms: _242  and  _243
REMARK   95  A    between atoms: _242  and  _245
REMARK   96  A    between atoms: _245  and  _246
REMARK   97  A    between atoms: _251  and  _253
REMARK   98  A    between atoms: _253  and  _254
REMARK   99  A    between atoms: _253  and  _256
REMARK  100  A    between atoms: _256  and  _257
REMARK  101  A    between atoms: _260  and  _262
REMARK  102  A    between atoms: _262  and  _263
REMARK  103  A    between atoms: _262  and  _265
REMARK  104  A    between atoms: _265  and  _266
REMARK  105  A    between atoms: _269  and  _271
REMARK  106  A    between atoms: _271  and  _272
REMARK  107  A    between atoms: _271  and  _274
REMARK  108  A    between atoms: _274  and  _275
REMARK  109  A    between atoms: _280  and  _282
REMARK  110  A    between atoms: _282  and  _283
REMARK  111  A    between atoms: _282  and  _285
REMARK  112  A    between atoms: _285  and  _286
REMARK  113  A    between atoms: _289  and  _291
REMARK  114  A    between atoms: _291  and  _292
REMARK  115  A    between atoms: _291  and  _294
REMARK  116  A    between atoms: _294  and  _295
REMARK  117  A    between atoms: _300  and  _302
REMARK  118  A    between atoms: _302  and  _303
REMARK  119  A    between atoms: _302  and  _305
REMARK  120  A    between atoms: _305  and  _306
REMARK  121  A    between atoms: _311  and  _313
REMARK  122  A    between atoms: _313  and  _314
REMARK  123  A    between atoms: _313  and  _316
REMARK  124  A    between atoms: _316  and  _317
REMARK  125  A    between atoms: _320  and  _322
REMARK  126  A    between atoms: _322  and  _323
REMARK  127  A    between atoms: _322  and  _325
REMARK  128  A    between atoms: _328  and  _330
REMARK  129  A    between atoms: _330  and  _331
REMARK  130  A    between atoms: _330  and  _333
REMARK  131  A    between atoms: _333  and  _334
REMARK  132  A    between atoms: _337  and  _339
REMARK  133  A    between atoms: _339  and  _340
REMARK  134  A    between atoms: _339  and  _342
REMARK  135  A    between atoms: _342  and  _343
REMARK  136  A    between atoms: _343  and  _344
REMARK  137  A    between atoms: _347  and  _349
REMARK  138  A    between atoms: _349  and  _350
REMARK  139  A    between atoms: _353  and  _355
REMARK  140  A    between atoms: _355  and  _356
REMARK  141  A    between atoms: _355  and  _358
REMARK  142  A    between atoms: _358  and  _359
REMARK  143  A    between atoms: _362  and  _364
REMARK  144  A    between atoms: _364  and  _365
REMARK  145  A    between atoms: _364  and  _367
REMARK  146  A    between atoms: _367  and  _368
REMARK  147  A    between atoms: _368  and  _369
REMARK  148  A    between atoms: _372  and  _374
REMARK  149  A    between atoms: _374  and  _375
REMARK  150  A    between atoms: _374  and  _377
REMARK  151  A    between atoms: _377  and  _378
REMARK  152  A    between atoms: _383  and  _385
REMARK  153  A    between atoms: _385  and  _386
REMARK  154  A    between atoms: _388  and  _390
REMARK  155  A    between atoms: _390  and  _391
REMARK  156  A    between atoms: _390  and  _393
REMARK  157  A    between atoms: _396  and  _398
REMARK  158  A    between atoms: _398  and  _399
REMARK  159  A    between atoms: _402  and  _404
REMARK  160  A    between atoms: _404  and  _405
REMARK  161  A    between atoms: _404  and  _407
REMARK  162  A    between atoms: _407  and  _408
REMARK  163  A    between atoms: _413  and  _415
REMARK  164  A    between atoms: _415  and  _416
REMARK  165  A    between atoms: _415  and  _418
REMARK  166  A    between atoms: _418  and  _419
REMARK  167  A    between atoms: _419  and  _420
REMARK  168  A    between atoms: _420  and  _421
REMARK  169  A    between atoms: _421  and  _422
REMARK  170  A    between atoms: _426  and  _428
REMARK  171  A    between atoms: _428  and  _429
REMARK  172  A    between atoms: _428  and  _431
REMARK  173  A    between atoms: _431  and  _432
REMARK  174  A    between atoms: _435  and  _437
REMARK  175  A    between atoms: _437  and  _438
REMARK  176  A    between atoms: _437  and  _440
REMARK  177  A    between atoms: _440  and  _441
REMARK  178  A    between atoms: _446  and  _448
REMARK  179  A    between atoms: _448  and  _449
REMARK  180  A    between atoms: _451  and  _453
REMARK  181  A    between atoms: _453  and  _454
REMARK  182  A    between atoms: _453  and  _456
REMARK  183  A    between atoms: _456  and  _457
REMARK  184  A    between atoms: _457  and  _458
REMARK  185  A    between atoms: _458  and  _459
REMARK  186  A    between atoms: _459  and  _460
REMARK  187  A    between atoms: _464  and  _466
REMARK  188  A    between atoms: _466  and  _467
REMARK  189  A    between atoms: _466  and  _469
REMARK  190  A    between atoms: _469  and  _470
REMARK  191  A    between atoms: _470  and  _471
REMARK  192  A    between atoms: _471  and  _472
REMARK  193  A    between atoms: _481  and  _483
REMARK  194  A    between atoms: _483  and  _484
REMARK  195  A    between atoms: _483  and  _486
REMARK  196  A    between atoms: _486  and  _487
REMARK  197  A    between atoms: _492  and  _494
REMARK  198  A    between atoms: _494  and  _495
REMARK  199  A    between atoms: _494  and  _497
REMARK  200  A    between atoms: _497  and  _498
REMARK  201  A    between atoms: _503  and  _504
REMARK  202  A    between atoms: _506  and  _508
REMARK  203  A    between atoms: _508  and  _509
REMARK  204  A    between atoms: _508  and  _511
REMARK  205  A    between atoms: _511  and  _512
REMARK  206  A    between atoms: _512  and  _513
REMARK  207  A    between atoms: _513  and  _514
REMARK  208  A    between atoms: _514  and  _515
REMARK  209  A    between atoms: _519  and  _521
REMARK  210  A    between atoms: _521  and  _522
REMARK  211  A    between atoms: _521  and  _524
REMARK  212  A    between atoms: _524  and  _525
REMARK  213  A    between atoms: _527  and  _529
REMARK  214  A    between atoms: _529  and  _530
REMARK  215  A    between atoms: _529  and  _532
REMARK  216  A    between atoms: _532  and  _533
REMARK  217  A    between atoms: _536  and  _538
REMARK  218  A    between atoms: _538  and  _539
REMARK  219  A    between atoms: _538  and  _541
REMARK  220  A    between atoms: _541  and  _542
REMARK  221  A    between atoms: _542  and  _543
REMARK  222  A    between atoms: _546  and  _548
REMARK  223  A    between atoms: _548  and  _549
REMARK  224  A    between atoms: _552  and  _554
REMARK  225  A    between atoms: _554  and  _555
REMARK  226  A    between atoms: _554  and  _557
REMARK  227  A    between atoms: _557  and  _558
REMARK  228  A    between atoms: _560  and  _562
REMARK  229  A    between atoms: _562  and  _563
REMARK  230  A    between atoms: _565  and  _567
REMARK  231  A    between atoms: _567  and  _568
REMARK  232  A    between atoms: _567  and  _570
REMARK  233  A    between atoms: _570  and  _571
REMARK  234  A    between atoms: _574  and  _576
REMARK  235  A    between atoms: _576  and  _577
REMARK  236  A    between atoms: _579  and  _581
REMARK  237  A    between atoms: _581  and  _582
REMARK  238  A    between atoms: _581  and  _584
REMARK  239  A    between atoms: _584  and  _585
REMARK  240  A    between atoms: _590  and  _592
REMARK  241  A    between atoms: _592  and  _593
REMARK  242  A    between atoms: _592  and  _595
REMARK  243  A    between atoms: _595  and  _596
REMARK  244  A    between atoms: _596  and  _597
REMARK  245  A    between atoms: _604  and  _605
REMARK  246  A    between atoms: _605  and  _621
REMARK  247  A    between atoms: _606  and  _608
REMARK  248  A    between atoms: _608  and  _609
REMARK  249  A    between atoms: _609  and  _610
REMARK  250  A    between atoms: _614  and  _616
REMARK  251  A    between atoms: _616  and  _617
REMARK  252  A    between atoms: _616  and  _624
REMARK  253  A    between atoms: _617  and  _618
REMARK  254  A    between atoms: _618  and  _619
REMARK  255  A    between atoms: _619  and  _620
REMARK  256  A    between atoms: _620  and  _621
REMARK  257  A    between atoms: _626  and  _628
REMARK  258  A    between atoms: _628  and  _629
REMARK  259  A    between atoms: _628  and  _631
REMARK  260  A    between atoms: _631  and  _632
REMARK  261  A    between atoms: _635  and  _637
REMARK  262  A    between atoms: _637  and  _638
REMARK  263  A    between atoms: _640  and  _642
REMARK  264  A    between atoms: _642  and  _643
REMARK  265  A    between atoms: _646  and  _648
REMARK  266  A    between atoms: _648  and  _649
REMARK  267  A    between atoms: _648  and  _651
REMARK  268  A    between atoms: _651  and  _652
REMARK  269  A    between atoms: _657  and  _658
REMARK                            x       y       z     vdW  Elec       q    Type
REMARK                         _______ _______ _______ _____ _____    ______ ____
ROOT
ATOM      1  C   LEU A   1      33.353  20.595  39.695  0.00  0.00    +0.238 C 
ATOM      2  O   LEU A   1      32.920  21.502  40.406  0.00  0.00    -0.274 OA
ATOM      3  N   GLU A   2      32.641  20.025  38.725  0.00  0.00    -0.298 N 
ATOM      4  H   GLU A   2      33.035  19.203  38.224  0.00  0.00    +0.150 HD
ENDROOT
BRANCH   1   5
ATOM      5  CA  LEU A   1      34.757  20.041  39.896  0.00  0.00    +0.145 C 
BRANCH   5   6
ATOM      6  N   LEU A   1      34.970  18.890  39.027  0.00  0.00    -0.238 NA
ATOM      7  H   LEU A   1      35.417  19.020  38.097  0.00  0.00    +0.142 HD
ENDBRANCH   5   6
BRANCH   5   8
ATOM      8  CB  LEU A   1      35.817  21.120  39.639  0.00  0.00    +0.026 C 
BRANCH   8   9
ATOM      9  CG  LEU A   1      37.088  21.033  40.498  0.00  0.00    +0.002 C 
ATOM     10  CD2 LEU A   1      36.799  21.423  41.949  0.00  0.00    +0.000 C 
ATOM     11  CD1 LEU A   1      37.737  19.648  40.440  0.00  0.00    +0.000 C 
ENDBRANCH   8   9
ENDBRANCH   5   8
ENDBRANCH   1   5
BRANCH   3  12
ATOM     12  CA  GLU A   2      31.326  20.521  38.346  0.00  0.00    +0.137 C 
BRANCH  12  13
ATOM     13  C   GLU A   2      30.352  19.387  38.047  0.00  0.00    +0.227 C 
ATOM     14  O   GLU A   2      30.675  18.461  37.304  0.00  0.00    -0.286 OA
ENDBRANCH  12  13
BRANCH  12  15
ATOM     15  CB  GLU A   2      31.434  21.432  37.123  0.00  0.00    +0.039 C 
BRANCH  15  16
ATOM     16  CG  GLU A   2      32.292  22.674  37.336  0.00  0.00    +0.116 C 
BRANCH  16  17
ATOM     17  CD  GLU A   2      32.215  23.651  36.184  0.00  0.00    +0.365 C 
ATOM     18  OE2 GLU A   2      33.129  24.495  36.068  0.00  0.00    -0.246 OA
ATOM     19  OE1 GLU A   2      31.249  23.577  35.395  0.00  0.00    -0.246 OA
ENDBRANCH  16  17
ENDBRANCH  15  16
ENDBRANCH  12  15
ENDBRANCH   3  12
TORSDOF 9
REMARK  Name = ../refined-set-2016/2qrp/2qrp_pocket.pdb
REMARK  269 active torsions:
REMARK  status: ('A' for Active; 'I' for Inactive)
REMARK    1  A    between atoms: _1  and  _3
REMARK    2  A    between atoms: _3  and  _4
REMARK    3  A    between atoms: _3  and  _6
REMARK    4  A    between atoms: _6  and  _7
REMARK    5  A    between atoms: _12  and  _13
REMARK    6  A    between atoms: _15  and  _17
REMARK    7  A    between atoms: _17  and  _18
REMARK    8  A    between atoms: _17  and  _20
REMARK    9  A    between atoms: _20  and  _21
REMARK   10  A    between atoms: _24  and  _26
REMARK   11  A    between atoms: _26  and  _27
REMARK   12  A    between atoms: _26  and  _29
REMARK   13  A    between atoms: _29  and  _30
REMARK   14  A    between atoms: _30  and  _31
REMARK   15  A    between atoms: _34  and  _36
REMARK   16  A    between atoms: _36  and  _37
REMARK   17  A    between atoms: _39  and  _41
REMARK   18  A    between atoms: _41  and  _42
REMARK   19  A    between atoms: _41  and  _44
REMARK   20  A    between atoms: _44  and  _45
REMARK   21  A    between atoms: _50  and  _52
REMARK   22  A    between atoms: _52  and  _53
REMARK   23  A    between atoms: _55  and  _57
REMARK   24  A    between atoms: _57  and  _58
REMARK   25  A    between atoms: _60  and  _62
REMARK   26  A    between atoms: _62  and  _63
REMARK   27  A    between atoms: _62  and  _65
REMARK   28  A    between atoms: _65  and  _66
REMARK   29  A    between atoms: _69  and  _71
REMARK   30  A    between atoms: _71  and  _72
REMARK   31  A    between atoms: _74  and  _76
REMARK   32  A    between atoms: _76  and  _77
REMARK   33  A    between atoms: _76  and  _79
REMARK   34  A    between atoms: _79  and  _80
REMARK   35  A    between atoms: _80  and  _81
REMARK   36  A    between atoms: _81  and  _82
REMARK   37  A    between atoms: _91  and  _93
REMARK   38  A    between atoms: _93  and  _94
REMARK   39  A    between atoms: _93  and  _96
REMARK   40  A    between atoms: _96  and  _97
REMARK   41  A    between atoms: _100  and  _102
REMARK   42  A    between atoms: _102  and  _103
REMARK   43  A    between atoms: _106  and  _108
REMARK   44  A    between atoms: _108  and  _109
REMARK   45  A    between atoms: _108  and  _111
REMARK   46  A    between atoms: _111  and  _112
REMARK   47  A    between atoms: _118  and  _120
REMARK   48  A    between atoms: _120  and  _121
REMARK   49  A    between atoms: _120  and  _123
REMARK   50  A    between atoms: _123  and  _124
REMARK   51  A    between atoms: _127  and  _129
REMARK   52  A    between atoms: _129  and  _130
REMARK   53  A    between atoms: _129  and  _132
REMARK   54  A    between atoms: _132  and  _133
REMARK   55  A    between atoms: _138  and  _139
REMARK   56  A    between atoms: _142  and  _143
REMARK   57  A    between atoms: _148  and  _150
REMARK   58  A    between atoms: _150  and  _151
REMARK   59  A    between atoms: _150  and  _153
REMARK   60  A    between atoms: _153  and  _154
REMARK   61  A    between atoms: _159  and  _161
REMARK   62  A    between atoms: _161  and  _162
REMARK   63  A    between atoms: _161  and  _164
REMARK   64  A    between atoms: _164  and  _165
REMARK   65  A    between atoms: _168  and  _170
REMARK   66  A    between atoms: _170  and  _171
REMARK   67  A    between atoms: _170  and  _173
REMARK   68  A    between atoms: _173  and  _174
REMARK   69  A    between atoms: _179  and  _181
REMARK   70  A    between atoms: _181  and  _182
REMARK   71  A    between atoms: _181  and  _184
REMARK   72  A    between atoms: _184  and  _185
REMARK   73  A    between atoms: _191  and  _193
REMARK   74  A    between atoms: _193  and  _194
REMARK   75  A    between atoms: _193  and  _196
REMARK   76  A    between atoms: _196  and  _197
REMARK   77  A    between atoms: _203  and  _205
REMARK   78  A    between atoms: _205  and  _206
REMARK   79  A    between atoms: _205  and  _208
REMARK   80  A    between atoms: _208  and  _209
REMARK   81  A    between atoms: _209  and  _210
REMARK   82  A    between atoms: _213  and  _215
REMARK   83  A    between atoms: _215  and  _216
REMARK   84  A    between atoms: _215  and  _218
REMARK   85  A    between atoms: _218  and  _219
REMARK   86  A    between atoms: _219  and  _220
REMARK   87  A    between atoms: _220  and  _221
REMARK   88  A    between atoms: _230  and  _232
REMARK   89  A    between atoms: _232  and  _233
REMARK   90  A    between atoms: _232  and  _235
REMARK   91  A    between atoms: _235  and  _236
REMARK   92  A    between atoms: _236  and  _237
REMARK   93  A    between atoms: _240  and  _242
REMARK   94  A    between atoms: _242  and  _243
REMARK   95  A    between atoms: _242  and  _245
REMARK   96  A    between atoms: _245  and  _246
REMARK   97  A    between atoms: _251  and  _253
REMARK   98  A    between atoms: _253  and  _254
REMARK   99  A    between atoms: _253  and  _256
REMARK  100  A    between atoms: _256  and  _257
REMARK  101  A    between atoms: _260  and  _262
REMARK  102  A    between atoms: _262  and  _263
REMARK  103  A    between atoms: _262  and  _265
REMARK  104  A    between atoms: _265  and  _266
REMARK  105  A    between atoms: _269  and  _271
REMARK  106  A    between atoms: _271  and  _272
REMARK  107  A    between atoms: _271  and  _274
REMARK  108  A    between atoms: _274  and  _275
REMARK  109  A    between atoms: _280  and  _282
REMARK  110  A    between atoms: _282  and  _283
REMARK  111  A    between atoms: _282  and  _285
REMARK  112  A    between atoms: _285  and  _286
REMARK  113  A    between atoms: _289  and  _291
REMARK  114  A    between atoms: _291  and  _292
REMARK  115  A    between atoms: _291  and  _294
REMARK  116  A    between atoms: _294  and  _295
REMARK  117  A    between atoms: _300  and  _302
REMARK  118  A    between atoms: _302  and  _303
REMARK  119  A    between atoms: _302  and  _305
REMARK  120  A    between atoms: _305  and  _306
REMARK  121  A    between atoms: _311  and  _313
REMARK  122  A    between atoms: _313  and  _314
REMARK  123  A    between atoms: _313  and  _316
REMARK  124  A    between atoms: _316  and  _317
REMARK  125  A    between atoms: _320  and  _322
REMARK  126  A    between atoms: _322  and  _323
REMARK  127  A    between atoms: _322  and  _325
REMARK  128  A    between atoms: _328  and  _330
REMARK  129  A    between atoms: _330  and  _331
REMARK  130  A    between atoms: _330  and  _333
REMARK  131  A    between atoms: _333  and  _334
REMARK  132  A    between atoms: _337  and  _339
REMARK  133  A    between atoms: _339  and  _340
REMARK  134  A    between atoms: _339  and  _342
REMARK  135  A    between atoms: _342  and  _343
REMARK  136  A    between atoms: _343  and  _344
REMARK  137  A    between atoms: _347  and  _349
REMARK  138  A    between atoms: _349  and  _350
REMARK  139  A    between atoms: _353  and  _355
REMARK  140  A    between atoms: _355  and  _356
REMARK  141  A    between atoms: _355  and  _358
REMARK  142  A    between atoms: _358  and  _359
REMARK  143  A    between atoms: _362  and  _364
REMARK  144  A    between atoms: _364  and  _365
REMARK  145  A    between atoms: _364  and  _367
REMARK  146  A    between atoms: _367  and  _368
REMARK  147  A    between atoms: _368  and  _369
REMARK  148  A    between atoms: _372  and  _374
REMARK  149  A    between atoms: _374  and  _375
REMARK  150  A    between atoms: _374  and  _377
REMARK  151  A    between atoms: _377  and  _378
REMARK  152  A    between atoms: _383  and  _385
REMARK  153  A    between atoms: _385  and  _386
REMARK  154  A    between atoms: _388  and  _390
REMARK  155  A    between atoms: _390  and  _391
REMARK  156  A    between atoms: _390  and  _393
REMARK  157  A    between atoms: _396  and  _398
REMARK  158  A    between atoms: _398  and  _399
REMARK  159  A    between atoms: _402  and  _404
REMARK  160  A    between atoms: _404  and  _405
REMARK  161  A    between atoms: _404  and  _407
REMARK  162  A    between atoms: _407  and  _408
REMARK  163  A    between atoms: _413  and  _415
REMARK  164  A    between atoms: _415  and  _416
REMARK  165  A    between atoms: _415  and  _418
REMARK  166  A    between atoms: _418  and  _419
REMARK  167  A    between atoms: _419  and  _420
REMARK  168  A    between atoms: _420  and  _421
REMARK  169  A    between atoms: _421  and  _422
REMARK  170  A    between atoms: _426  and  _428
REMARK  171  A    between atoms: _428  and  _429
REMARK  172  A    between atoms: _428  and  _431
REMARK  173  A    between atoms: _431  and  _432
REMARK  174  A    between atoms: _435  and  _437
REMARK  175  A    between atoms: _437  and  _438
REMARK  176  A    between atoms: _437  and  _440
REMARK  177  A    between atoms: _440  and  _441
REMARK  178  A    between atoms: _446  and  _448
REMARK  179  A    between atoms: _448  and  _449
REMARK  180  A    between atoms: _451  and  _453
REMARK  181  A    between atoms: _453  and  _454
REMARK  182  A    between atoms: _453  and  _456
REMARK  183  A    between atoms: _456  and  _457
REMARK  184  A    between atoms: _457  and  _458
REMARK  185  A    between atoms: _458  and  _459
REMARK  186  A    between atoms: _459  and  _460
REMARK  187  A    between atoms: _464  and  _466
REMARK  188  A    between atoms: _466  and  _467
REMARK  189  A    between atoms: _466  and  _469
REMARK  190  A    between atoms: _469  and  _470
REMARK  191  A    between atoms: _470  and  _471
REMARK  192  A    between atoms: _471  and  _472
REMARK  193  A    between atoms: _481  and  _483
REMARK  194  A    between atoms: _483  and  _484
REMARK  195  A    between atoms: _483  and  _486
REMARK  196  A    between atoms: _486  and  _487
REMARK  197  A    between atoms: _492  and  _494
REMARK  198  A    between atoms: _494  and  _495
REMARK  199  A    between atoms: _494  and  _497
REMARK  200  A    between atoms: _497  and  _498
REMARK  201  A    between atoms: _503  and  _504
REMARK  202  A    between atoms: _506  and  _508
REMARK  203  A    between atoms: _508  and  _509
REMARK  204  A    between atoms: _508  and  _511
REMARK  205  A    between atoms: _511  and  _512
REMARK  206  A    between atoms: _512  and  _513
REMARK  207  A    between atoms: _513  and  _514
REMARK  208  A    between atoms: _514  and  _515
REMARK  209  A    between atoms: _519  and  _521
REMARK  210  A    between atoms: _521  and  _522
REMARK  211  A    between atoms: _521  and  _524
REMARK  212  A    between atoms: _524  and  _525
REMARK  213  A    between atoms: _527  and  _529
REMARK  214  A    between atoms: _529  and  _530
REMARK  215  A    between atoms: _529  and  _532
REMARK  216  A    between atoms: _532  and  _533
REMARK  217  A    between atoms: _536  and  _538
REMARK  218  A    between atoms: _538  and  _539
REMARK  219  A    between atoms: _538  and  _541
REMARK  220  A    between atoms: _541  and  _542
REMARK  221  A    between atoms: _542  and  _543
REMARK  222  A    between atoms: _546  and  _548
REMARK  223  A    between atoms: _548  and  _549
REMARK  224  A    between atoms: _552  and  _554
REMARK  225  A    between atoms: _554  and  _555
REMARK  226  A    between atoms: _554  and  _557
REMARK  227  A    between atoms: _557  and  _558
REMARK  228  A    between atoms: _560  and  _562
REMARK  229  A    between atoms: _562  and  _563
REMARK  230  A    between atoms: _565  and  _567
REMARK  231  A    between atoms: _567  and  _568
REMARK  232  A    between atoms: _567  and  _570
REMARK  233  A    between atoms: _570  and  _571
REMARK  234  A    between atoms: _574  and  _576
REMARK  235  A    between atoms: _576  and  _577
REMARK  236  A    between atoms: _579  and  _581
REMARK  237  A    between atoms: _581  and  _582
REMARK  238  A    between atoms: _581  and  _584
REMARK  239  A    between atoms: _584  and  _585
REMARK  240  A    between atoms: _590  and  _592
REMARK  241  A    between atoms: _592  and  _593
REMARK  242  A    between atoms: _592  and  _595
REMARK  243  A    between atoms: _595  and  _596
REMARK  244  A    between atoms: _596  and  _597
REMARK  245  A    between atoms: _604  and  _605
REMARK  246  A    between atoms: _605  and  _621
REMARK  247  A    between atoms: _606  and  _608
REMARK  248  A    between atoms: _608  and  _609
REMARK  249  A    between atoms: _609  and  _610
REMARK  250  A    between atoms: _614  and  _616
REMARK  251  A    between atoms: _616  and  _617
REMARK  252  A    between atoms: _616  and  _624
REMARK  253  A    between atoms: _617  and  _618
REMARK  254  A    between atoms: _618  and  _619
REMARK  255  A    between atoms: _619  and  _620
REMARK  256  A    between atoms: _620  and  _621
REMARK  257  A    between atoms: _626  and  _628
REMARK  258  A    between atoms: _628  and  _629
REMARK  259  A    between atoms: _628  and  _631
REMARK  260  A    between atoms: _631  and  _632
REMARK  261  A    between atoms: _635  and  _637
REMARK  262  A    between atoms: _637  and  _638
REMARK  263  A    between atoms: _640  and  _642
REMARK  264  A    between atoms: _642  and  _643
REMARK  265  A    between atoms: _646  and  _648
REMARK  266  A    between atoms: _648  and  _649
REMARK  267  A    between atoms: _648  and  _651
REMARK  268  A    between atoms: _651  and  _652
REMARK  269  A    between atoms: _657  and  _658
REMARK                            x       y       z     vdW  Elec       q    Type
REMARK                         _______ _______ _______ _____ _____    ______ ____
ROOT
ATOM      1  C   LEU A   5      30.668  19.903  32.311  0.00  0.00    +0.241 C 
ATOM      2  N   GLY A   6      30.024  20.758  33.102  0.00  0.00    -0.295 N 
ATOM      3  H   GLY A   6      30.055  21.772  32.874  0.00  0.00    +0.150 HD
ATOM      4  O   LEU A   5      30.709  18.688  32.514  0.00  0.00    -0.273 OA
ENDROOT
BRANCH   1   5
ATOM      5  CA  LEU A   5      31.387  20.506  31.105  0.00  0.00    +0.149 C 
BRANCH   5   7
ATOM      6  C   GLY A   4      29.406  21.059  29.784  0.00  0.00    +0.243 C 
ATOM      7  N   LEU A   5      30.526  21.452  30.390  0.00  0.00    -0.297 N 
ATOM      8  H   LEU A   5      30.796  22.456  30.355  0.00  0.00    +0.150 HD
ATOM      9  O   GLY A   4      29.019  19.892  29.778  0.00  0.00    -0.273 OA
BRANCH   6  10
ATOM     10  CA  GLY A   4      28.603  22.127  29.068  0.00  0.00    +0.176 C 
BRANCH  10  13
ATOM     11  C   GLY A   3      27.902  23.533  30.965  0.00  0.00    +0.243 C 
ATOM     12  O   GLY A   3      27.585  22.590  31.693  0.00  0.00    -0.273 OA
ATOM     13  N   GLY A   4      28.452  23.402  29.760  0.00  0.00    -0.295 N 
ATOM     14  H   GLY A   4      28.795  24.260  29.283  0.00  0.00    +0.150 HD
BRANCH  11  15
ATOM     15  CA  GLY A   3      27.703  24.951  31.427  0.00  0.00    +0.176 C 
BRANCH  15  18
ATOM     16  C   ASN A   2      28.268  26.355  33.321  0.00  0.00    +0.241 C 
ATOM     17  O   ASN A   2      27.621  27.305  32.879  0.00  0.00    -0.273 OA
ATOM     18  N   GLY A   3      28.343  25.177  32.713  0.00  0.00    -0.295 N 
ATOM     19  H   GLY A   3      28.869  24.402  33.165  0.00  0.00    +0.150 HD
BRANCH  16  20
ATOM     20  CA  ASN A   2      29.062  26.491  34.604  0.00  0.00    +0.158 C 
BRANCH  20  23
ATOM     21  C   GLY A   1      28.184  25.045  36.373  0.00  0.00    +0.240 C 
ATOM     22  O   GLY A   1      27.222  25.785  36.606  0.00  0.00    -0.274 OA
ATOM     23  N   ASN A   2      29.077  25.286  35.419  0.00  0.00    -0.297 N 
ATOM     24  H   ASN A   2      29.821  24.580  35.247  0.00  0.00    +0.150 HD
BRANCH  21  25
ATOM     25  CA  GLY A   1      28.407  23.772  37.170  0.00  0.00    +0.169 C 
BRANCH  25  26
ATOM     26  N   GLY A   1      27.549  23.706  38.350  0.00  0.00    -0.236 NA
ATOM     27  H   GLY A   1      26.669  24.261  38.356  0.00  0.00    +0.142 HD
ENDBRANCH  25  26
ENDBRANCH  21  25
ENDBRANCH  20  23
BRANCH  20  28
ATOM     28  CB  ASN A   2      30.493  26.882  34.254  0.00  0.00    +0.114 C 
BRANCH  28  29
ATOM     29  CG  ASN A   2      31.146  27.675  35.345  0.00  0.00    +0.222 C 
ATOM     30  ND2 ASN A   2      32.112  27.067  36.035  0.00  0.00    -0.329 N 
ATOM     31 HD21 ASN A   2      32.596  27.570  36.806  0.00  0.00    +0.145 HD
ATOM     32 HD22 ASN A   2      32.382  26.090  35.802  0.00  0.00    +0.145 HD
ATOM     33  OD1 ASN A   2      30.786  28.825  35.575  0.00  0.00    -0.275 OA
ENDBRANCH  28  29
ENDBRANCH  20  28
ENDBRANCH  16  20
ENDBRANCH  15  18
ENDBRANCH  11  15
ENDBRANCH  10  13
ENDBRANCH   6  10
ENDBRANCH   5   7
BRANCH   5  34
ATOM     34  CB  LEU A   5      32.703  21.177  31.535  0.00  0.00    +0.029 C 
BRANCH  34  35
ATOM     35  CG  LEU A   5      33.750  20.334  32.281  0.00  0.00    +0.002 C 
ATOM     36  CD2 LEU A   5      33.600  20.465  33.793  0.00  0.00    +0.000 C 
ATOM     37  CD1 LEU A   5      35.154  20.731  31.871  0.00  0.00    +0.000 C 
ENDBRANCH  34  35
ENDBRANCH   5  34
ENDBRANCH   1   5
BRANCH   2  38
ATOM     38  CA  GLY A   6      29.275  20.325  34.279  0.00  0.00    +0.176 C 
BRANCH  38  39
ATOM     39  C   GLY A   6      28.053  19.513  33.894  0.00  0.00    +0.243 C 
ATOM     40  O   GLY A   6      27.722  18.528  34.546  0.00  0.00    -0.273 OA
ATOM     41  N   ARG A   7      27.387  19.932  32.825  0.00  0.00    -0.297 N 
ATOM     42  H   ARG A   7      27.717  20.778  32.318  0.00  0.00    +0.150 HD
BRANCH  41  43
ATOM     43  CA  ARG A   7      26.198  19.227  32.346  0.00  0.00    +0.149 C 
BRANCH  43  44
ATOM     44  C   ARG A   7      26.549  17.868  31.746  0.00  0.00    +0.241 C 
ATOM     45  O   ARG A   7      25.796  16.901  31.910  0.00  0.00    -0.273 OA
ATOM     46  N   LEU A   8      27.688  17.793  31.060  0.00  0.00    -0.297 N 
ATOM     47  H   LEU A   8      28.231  18.661  30.875  0.00  0.00    +0.150 HD
BRANCH  46  48
ATOM     48  CA  LEU A   8      28.191  16.509  30.560  0.00  0.00    +0.149 C 
BRANCH  48  49
ATOM     49  C   LEU A   8      28.362  15.506  31.699  0.00  0.00    +0.241 C 
ATOM     50  N   ALA A   9      28.975  15.952  32.794  0.00  0.00    -0.298 N 
ATOM     51  H   ALA A   9      29.350  16.922  32.804  0.00  0.00    +0.150 HD
ATOM     52  O   LEU A   8      27.945  14.355  31.586  0.00  0.00    -0.273 OA
BRANCH  50  53
ATOM     53  CA  ALA A   9      29.135  15.118  33.981  0.00  0.00    +0.137 C 
ATOM     54  CB  ALA A   9      29.837  15.902  35.093  0.00  0.00    +0.030 C 
BRANCH  53  55
ATOM     55  C   ALA A   9      27.783  14.583  34.468  0.00  0.00    +0.227 C 
ATOM     56  O   ALA A   9      27.670  13.409  34.818  0.00  0.00    -0.286 OA
ENDBRANCH  53  55
ENDBRANCH  50  53
ENDBRANCH  48  49
BRANCH  48  57
ATOM     57  CB  LEU A   8      29.518  16.679  29.816  0.00  0.00    +0.029 C 
BRANCH  57  58
ATOM     58  CG  LEU A   8      30.008  15.441  29.061  0.00  0.00    +0.002 C 
ATOM     59  CD2 LEU A   8      31.506  15.549  28.794  0.00  0.00    +0.000 C 
ATOM     60  CD1 LEU A   8      29.219  15.245  27.759  0.00  0.00    +0.000 C 
ENDBRANCH  57  58
ENDBRANCH  48  57
ENDBRANCH  46  48
ENDBRANCH  43  44
BRANCH  43  61
ATOM     61  CB  ARG A   7      25.402  20.088  31.358  0.00  0.00    +0.033 C 
BRANCH  61  62
ATOM     62  CG  ARG A   7      24.101  19.449  30.876  0.00  0.00    +0.045 C 
BRANCH  62  63
ATOM     63  CD  ARG A   7      23.195  19.049  32.045  0.00  0.00    +0.174 C 
BRANCH  63  64
ATOM     64  NE  ARG A   7      22.762  17.658  31.923  0.00  0.00    -0.265 N 
ATOM     65  CZ  ARG A   7      21.976  17.030  32.793  0.00  0.00    +0.342 C 
ATOM     66  NH2 ARG A   7      21.527  17.666  33.873  0.00  0.00    -0.292 N 
ATOM     67 HH21 ARG A   7      20.913  17.171  34.550  0.00  0.00    +0.255 HD
ATOM     68 HH22 ARG A   7      21.791  18.658  34.039  0.00  0.00    +0.255 HD
ATOM     69  NH1 ARG A   7      21.644  15.759  32.587  0.00  0.00    -0.292 N 
ATOM     70 HH11 ARG A   7      21.030  15.265  33.266  0.00  0.00    +0.255 HD
ATOM     71 HH12 ARG A   7      21.999  15.258  31.747  0.00  0.00    +0.255 HD
ATOM     72  HE  ARG A   7      23.092  17.121  31.096  0.00  0.00    +0.259 HD
ENDBRANCH  63  64
ENDBRANCH  62  63
ENDBRANCH  61  62
ENDBRANCH  43  61
ENDBRANCH  41  43
ENDBRANCH  38  39
ENDBRANCH   2  38
TORSDOF 28
REMARK  Name = ../refined-set-2016/2qrp/2qrp_pocket.pdb
REMARK  269 active torsions:
REMARK  status: ('A' for Active; 'I' for Inactive)
REMARK    1  A    between atoms: _1  and  _3
REMARK    2  A    between atoms: _3  and  _4
REMARK    3  A    between atoms: _3  and  _6
REMARK    4  A    between atoms: _6  and  _7
REMARK    5  A    between atoms: _12  and  _13
REMARK    6  A    between atoms: _15  and  _17
REMARK    7  A    between atoms: _17  and  _18
REMARK    8  A    between atoms: _17  and  _20
REMARK    9  A    between atoms: _20  and  _21
REMARK   10  A    between atoms: _24  and  _26
REMARK   11  A    between atoms: _26  and  _27
REMARK   12  A    between atoms: _26  and  _29
REMARK   13  A    between atoms: _29  and  _30
REMARK   14  A    between atoms: _30  and  _31
REMARK   15  A    between atoms: _34  and  _36
REMARK   16  A    between atoms: _36  and  _37
REMARK   17  A    between atoms: _39  and  _41
REMARK   18  A    between atoms: _41  and  _42
REMARK   19  A    between atoms: _41  and  _44
REMARK   20  A    between atoms: _44  and  _45
REMARK   21  A    between atoms: _50  and  _52
REMARK   22  A    between atoms: _52  and  _53
REMARK   23  A    between atoms: _55  and  _57
REMARK   24  A    between atoms: _57  and  _58
REMARK   25  A    between atoms: _60  and  _62
REMARK   26  A    between atoms: _62  and  _63
REMARK   27  A    between atoms: _62  and  _65
REMARK   28  A    between atoms: _65  and  _66
REMARK   29  A    between atoms: _69  and  _71
REMARK   30  A    between atoms: _71  and  _72
REMARK   31  A    between atoms: _74  and  _76
REMARK   32  A    between atoms: _76  and  _77
REMARK   33  A    between atoms: _76  and  _79
REMARK   34  A    between atoms: _79  and  _80
REMARK   35  A    between atoms: _80  and  _81
REMARK   36  A    between atoms: _81  and  _82
REMARK   37  A    between atoms: _91  and  _93
REMARK   38  A    between atoms: _93  and  _94
REMARK   39  A    between atoms: _93  and  _96
REMARK   40  A    between atoms: _96  and  _97
REMARK   41  A    between atoms: _100  and  _102
REMARK   42  A    between atoms: _102  and  _103
REMARK   43  A    between atoms: _106  and  _108
REMARK   44  A    between atoms: _108  and  _109
REMARK   45  A    between atoms: _108  and  _111
REMARK   46  A    between atoms: _111  and  _112
REMARK   47  A    between atoms: _118  and  _120
REMARK   48  A    between atoms: _120  and  _121
REMARK   49  A    between atoms: _120  and  _123
REMARK   50  A    between atoms: _123  and  _124
REMARK   51  A    between atoms: _127  and  _129
REMARK   52  A    between atoms: _129  and  _130
REMARK   53  A    between atoms: _129  and  _132
REMARK   54  A    between atoms: _132  and  _133
REMARK   55  A    between atoms: _138  and  _139
REMARK   56  A    between atoms: _142  and  _143
REMARK   57  A    between atoms: _148  and  _150
REMARK   58  A    between atoms: _150  and  _151
REMARK   59  A    between atoms: _150  and  _153
REMARK   60  A    between atoms: _153  and  _154
REMARK   61  A    between atoms: _159  and  _161
REMARK   62  A    between atoms: _161  and  _162
REMARK   63  A    between atoms: _161  and  _164
REMARK   64  A    between atoms: _164  and  _165
REMARK   65  A    between atoms: _168  and  _170
REMARK   66  A    between atoms: _170  and  _171
REMARK   67  A    between atoms: _170  and  _173
REMARK   68  A    between atoms: _173  and  _174
REMARK   69  A    between atoms: _179  and  _181
REMARK   70  A    between atoms: _181  and  _182
REMARK   71  A    between atoms: _181  and  _184
REMARK   72  A    between atoms: _184  and  _185
REMARK   73  A    between atoms: _191  and  _193
REMARK   74  A    between atoms: _193  and  _194
REMARK   75  A    between atoms: _193  and  _196
REMARK   76  A    between atoms: _196  and  _197
REMARK   77  A    between atoms: _203  and  _205
REMARK   78  A    between atoms: _205  and  _206
REMARK   79  A    between atoms: _205  and  _208
REMARK   80  A    between atoms: _208  and  _209
REMARK   81  A    between atoms: _209  and  _210
REMARK   82  A    between atoms: _213  and  _215
REMARK   83  A    between atoms: _215  and  _216
REMARK   84  A    between atoms: _215  and  _218
REMARK   85  A    between atoms: _218  and  _219
REMARK   86  A    between atoms: _219  and  _220
REMARK   87  A    between atoms: _220  and  _221
REMARK   88  A    between atoms: _230  and  _232
REMARK   89  A    between atoms: _232  and  _233
REMARK   90  A    between atoms: _232  and  _235
REMARK   91  A    between atoms: _235  and  _236
REMARK   92  A    between atoms: _236  and  _237
REMARK   93  A    between atoms: _240  and  _242
REMARK   94  A    between atoms: _242  and  _243
REMARK   95  A    between atoms: _242  and  _245
REMARK   96  A    between atoms: _245  and  _246
REMARK   97  A    between atoms: _251  and  _253
REMARK   98  A    between atoms: _253  and  _254
REMARK   99  A    between atoms: _253  and  _256
REMARK  100  A    between atoms: _256  and  _257
REMARK  101  A    between atoms: _260  and  _262
REMARK  102  A    between atoms: _262  and  _263
REMARK  103  A    between atoms: _262  and  _265
REMARK  104  A    between atoms: _265  and  _266
REMARK  105  A    between atoms: _269  and  _271
REMARK  106  A    between atoms: _271  and  _272
REMARK  107  A    between atoms: _271  and  _274
REMARK  108  A    between atoms: _274  and  _275
REMARK  109  A    between atoms: _280  and  _282
REMARK  110  A    between atoms: _282  and  _283
REMARK  111  A    between atoms: _282  and  _285
REMARK  112  A    between atoms: _285  and  _286
REMARK  113  A    between atoms: _289  and  _291
REMARK  114  A    between atoms: _291  and  _292
REMARK  115  A    between atoms: _291  and  _294
REMARK  116  A    between atoms: _294  and  _295
REMARK  117  A    between atoms: _300  and  _302
REMARK  118  A    between atoms: _302  and  _303
REMARK  119  A    between atoms: _302  and  _305
REMARK  120  A    between atoms: _305  and  _306
REMARK  121  A    between atoms: _311  and  _313
REMARK  122  A    between atoms: _313  and  _314
REMARK  123  A    between atoms: _313  and  _316
REMARK  124  A    between atoms: _316  and  _317
REMARK  125  A    between atoms: _320  and  _322
REMARK  126  A    between atoms: _322  and  _323
REMARK  127  A    between atoms: _322  and  _325
REMARK  128  A    between atoms: _328  and  _330
REMARK  129  A    between atoms: _330  and  _331
REMARK  130  A    between atoms: _330  and  _333
REMARK  131  A    between atoms: _333  and  _334
REMARK  132  A    between atoms: _337  and  _339
REMARK  133  A    between atoms: _339  and  _340
REMARK  134  A    between atoms: _339  and  _342
REMARK  135  A    between atoms: _342  and  _343
REMARK  136  A    between atoms: _343  and  _344
REMARK  137  A    between atoms: _347  and  _349
REMARK  138  A    between atoms: _349  and  _350
REMARK  139  A    between atoms: _353  and  _355
REMARK  140  A    between atoms: _355  and  _356
REMARK  141  A    between atoms: _355  and  _358
REMARK  142  A    between atoms: _358  and  _359
REMARK  143  A    between atoms: _362  and  _364
REMARK  144  A    between atoms: _364  and  _365
REMARK  145  A    between atoms: _364  and  _367
REMARK  146  A    between atoms: _367  and  _368
REMARK  147  A    between atoms: _368  and  _369
REMARK  148  A    between atoms: _372  and  _374
REMARK  149  A    between atoms: _374  and  _375
REMARK  150  A    between atoms: _374  and  _377
REMARK  151  A    between atoms: _377  and  _378
REMARK  152  A    between atoms: _383  and  _385
REMARK  153  A    between atoms: _385  and  _386
REMARK  154  A    between atoms: _388  and  _390
REMARK  155  A    between atoms: _390  and  _391
REMARK  156  A    between atoms: _390  and  _393
REMARK  157  A    between atoms: _396  and  _398
REMARK  158  A    between atoms: _398  and  _399
REMARK  159  A    between atoms: _402  and  _404
REMARK  160  A    between atoms: _404  and  _405
REMARK  161  A    between atoms: _404  and  _407
REMARK  162  A    between atoms: _407  and  _408
REMARK  163  A    between atoms: _413  and  _415
REMARK  164  A    between atoms: _415  and  _416
REMARK  165  A    between atoms: _415  and  _418
REMARK  166  A    between atoms: _418  and  _419
REMARK  167  A    between atoms: _419  and  _420
REMARK  168  A    between atoms: _420  and  _421
REMARK  169  A    between atoms: _421  and  _422
REMARK  170  A    between atoms: _426  and  _428
REMARK  171  A    between atoms: _428  and  _429
REMARK  172  A    between atoms: _428  and  _431
REMARK  173  A    between atoms: _431  and  _432
REMARK  174  A    between atoms: _435  and  _437
REMARK  175  A    between atoms: _437  and  _438
REMARK  176  A    between atoms: _437  and  _440
REMARK  177  A    between atoms: _440  and  _441
REMARK  178  A    between atoms: _446  and  _448
REMARK  179  A    between atoms: _448  and  _449
REMARK  180  A    between atoms: _451  and  _453
REMARK  181  A    between atoms: _453  and  _454
REMARK  182  A    between atoms: _453  and  _456
REMARK  183  A    between atoms: _456  and  _457
REMARK  184  A    between atoms: _457  and  _458
REMARK  185  A    between atoms: _458  and  _459
REMARK  186  A    between atoms: _459  and  _460
REMARK  187  A    between atoms: _464  and  _466
REMARK  188  A    between atoms: _466  and  _467
REMARK  189  A    between atoms: _466  and  _469
REMARK  190  A    between atoms: _469  and  _470
REMARK  191  A    between atoms: _470  and  _471
REMARK  192  A    between atoms: _471  and  _472
REMARK  193  A    between atoms: _481  and  _483
REMARK  194  A    between atoms: _483  and  _484
REMARK  195  A    between atoms: _483  and  _486
REMARK  196  A    between atoms: _486  and  _487
REMARK  197  A    between atoms: _492  and  _494
REMARK  198  A    between atoms: _494  and  _495
REMARK  199  A    between atoms: _494  and  _497
REMARK  200  A    between atoms: _497  and  _498
REMARK  201  A    between atoms: _503  and  _504
REMARK  202  A    between atoms: _506  and  _508
REMARK  203  A    between atoms: _508  and  _509
REMARK  204  A    between atoms: _508  and  _511
REMARK  205  A    between atoms: _511  and  _512
REMARK  206  A    between atoms: _512  and  _513
REMARK  207  A    between atoms: _513  and  _514
REMARK  208  A    between atoms: _514  and  _515
REMARK  209  A    between atoms: _519  and  _521
REMARK  210  A    between atoms: _521  and  _522
REMARK  211  A    between atoms: _521  and  _524
REMARK  212  A    between atoms: _524  and  _525
REMARK  213  A    between atoms: _527  and  _529
REMARK  214  A    between atoms: _529  and  _530
REMARK  215  A    between atoms: _529  and  _532
REMARK  216  A    between atoms: _532  and  _533
REMARK  217  A    between atoms: _536  and  _538
REMARK  218  A    between atoms: _538  and  _539
REMARK  219  A    between atoms: _538  and  _541
REMARK  220  A    between atoms: _541  and  _542
REMARK  221  A    between atoms: _542  and  _543
REMARK  222  A    between atoms: _546  and  _548
REMARK  223  A    between atoms: _548  and  _549
REMARK  224  A    between atoms: _552  and  _554
REMARK  225  A    between atoms: _554  and  _555
REMARK  226  A    between atoms: _554  and  _557
REMARK  227  A    between atoms: _557  and  _558
REMARK  228  A    between atoms: _560  and  _562
REMARK  229  A    between atoms: _562  and  _563
REMARK  230  A    between atoms: _565  and  _567
REMARK  231  A    between atoms: _567  and  _568
REMARK  232  A    between atoms: _567  and  _570
REMARK  233  A    between atoms: _570  and  _571
REMARK  234  A    between atoms: _574  and  _576
REMARK  235  A    between atoms: _576  and  _577
REMARK  236  A    between atoms: _579  and  _581
REMARK  237  A    between atoms: _581  and  _582
REMARK  238  A    between atoms: _581  and  _584
REMARK  239  A    between atoms: _584  and  _585
REMARK  240  A    between atoms: _590  and  _592
REMARK  241  A    between atoms: _592  and  _593
REMARK  242  A    between atoms: _592  and  _595
REMARK  243  A    between atoms: _595  and  _596
REMARK  244  A    between atoms: _596  and  _597
REMARK  245  A    between atoms: _604  and  _605
REMARK  246  A    between atoms: _605  and  _621
REMARK  247  A    between atoms: _606  and  _608
REMARK  248  A    between atoms: _608  and  _609
REMARK  249  A    between atoms: _609  and  _610
REMARK  250  A    between atoms: _614  and  _616
REMARK  251  A    between atoms: _616  and  _617
REMARK  252  A    between atoms: _616  and  _624
REMARK  253  A    between atoms: _617  and  _618
REMARK  254  A    between atoms: _618  and  _619
REMARK  255  A    between atoms: _619  and  _620
REMARK  256  A    between atoms: _620  and  _621
REMARK  257  A    between atoms: _626  and  _628
REMARK  258  A    between atoms: _628  and  _629
REMARK  259  A    between atoms: _628  and  _631
REMARK  260  A    between atoms: _631  and  _632
REMARK  261  A    between atoms: _635  and  _637
REMARK  262  A    between atoms: _637  and  _638
REMARK  263  A    between atoms: _640  and  _642
REMARK  264  A    between atoms: _642  and  _643
REMARK  265  A    between atoms: _646  and  _648
REMARK  266  A    between atoms: _648  and  _649
REMARK  267  A    between atoms: _648  and  _651
REMARK  268  A    between atoms: _651  and  _652
REMARK  269  A    between atoms: _657  and  _658
REMARK                            x       y       z     vdW  Elec       q    Type
REMARK                         _______ _______ _______ _____ _____    ______ ____
ROOT
ATOM      1  CB  PHE A   1      28.729  11.253  32.321  0.00  0.00    +0.051 C 
ENDROOT
BRANCH   1   2
ATOM      2  CG  PHE A   1      29.420  11.482  30.994  0.00  0.00    -0.020 A 
ATOM      3  CD2 PHE A   1      30.803  11.642  30.943  0.00  0.00    -0.004 A 
ATOM      4  CE2 PHE A   1      31.455  11.864  29.726  0.00  0.00    -0.000 A 
ATOM      5  CZ  PHE A   1      30.718  11.927  28.544  0.00  0.00    -0.000 A 
ATOM      6  CE1 PHE A   1      29.334  11.768  28.580  0.00  0.00    -0.000 A 
ATOM      7  CD1 PHE A   1      28.692  11.556  29.803  0.00  0.00    -0.004 A 
ENDBRANCH   1   2
BRANCH   1   8
ATOM      8  CA  PHE A   1      27.249  10.869  32.198  0.00  0.00    +0.137 C 
BRANCH   8   9
ATOM      9  N   PHE A   1      26.414  12.059  32.025  0.00  0.00    -0.239 NA
ATOM     10  H   PHE A   1      26.861  12.996  32.090  0.00  0.00    +0.142 HD
ENDBRANCH   8   9
BRANCH   8  11
ATOM     11  C   PHE A   1      26.816  10.020  33.392  0.00  0.00    +0.224 C 
ATOM     12  O   PHE A   1      26.728   8.803  33.285  0.00  0.00    -0.287 OA
ENDBRANCH   8  11
ENDBRANCH   1   8
TORSDOF 4
REMARK  Name = ../refined-set-2016/2qrp/2qrp_pocket.pdb
REMARK  269 active torsions:
REMARK  status: ('A' for Active; 'I' for Inactive)
REMARK    1  A    between atoms: _1  and  _3
REMARK    2  A    between atoms: _3  and  _4
REMARK    3  A    between atoms: _3  and  _6
REMARK    4  A    between atoms: _6  and  _7
REMARK    5  A    between atoms: _12  and  _13
REMARK    6  A    between atoms: _15  and  _17
REMARK    7  A    between atoms: _17  and  _18
REMARK    8  A    between atoms: _17  and  _20
REMARK    9  A    between atoms: _20  and  _21
REMARK   10  A    between atoms: _24  and  _26
REMARK   11  A    between atoms: _26  and  _27
REMARK   12  A    between atoms: _26  and  _29
REMARK   13  A    between atoms: _29  and  _30
REMARK   14  A    between atoms: _30  and  _31
REMARK   15  A    between atoms: _34  and  _36
REMARK   16  A    between atoms: _36  and  _37
REMARK   17  A    between atoms: _39  and  _41
REMARK   18  A    between atoms: _41  and  _42
REMARK   19  A    between atoms: _41  and  _44
REMARK   20  A    between atoms: _44  and  _45
REMARK   21  A    between atoms: _50  and  _52
REMARK   22  A    between atoms: _52  and  _53
REMARK   23  A    between atoms: _55  and  _57
REMARK   24  A    between atoms: _57  and  _58
REMARK   25  A    between atoms: _60  and  _62
REMARK   26  A    between atoms: _62  and  _63
REMARK   27  A    between atoms: _62  and  _65
REMARK   28  A    between atoms: _65  and  _66
REMARK   29  A    between atoms: _69  and  _71
REMARK   30  A    between atoms: _71  and  _72
REMARK   31  A    between atoms: _74  and  _76
REMARK   32  A    between atoms: _76  and  _77
REMARK   33  A    between atoms: _76  and  _79
REMARK   34  A    between atoms: _79  and  _80
REMARK   35  A    between atoms: _80  and  _81
REMARK   36  A    between atoms: _81  and  _82
REMARK   37  A    between atoms: _91  and  _93
REMARK   38  A    between atoms: _93  and  _94
REMARK   39  A    between atoms: _93  and  _96
REMARK   40  A    between atoms: _96  and  _97
REMARK   41  A    between atoms: _100  and  _102
REMARK   42  A    between atoms: _102  and  _103
REMARK   43  A    between atoms: _106  and  _108
REMARK   44  A    between atoms: _108  and  _109
REMARK   45  A    between atoms: _108  and  _111
REMARK   46  A    between atoms: _111  and  _112
REMARK   47  A    between atoms: _118  and  _120
REMARK   48  A    between atoms: _120  and  _121
REMARK   49  A    between atoms: _120  and  _123
REMARK   50  A    between atoms: _123  and  _124
REMARK   51  A    between atoms: _127  and  _129
REMARK   52  A    between atoms: _129  and  _130
REMARK   53  A    between atoms: _129  and  _132
REMARK   54  A    between atoms: _132  and  _133
REMARK   55  A    between atoms: _138  and  _139
REMARK   56  A    between atoms: _142  and  _143
REMARK   57  A    between atoms: _148  and  _150
REMARK   58  A    between atoms: _150  and  _151
REMARK   59  A    between atoms: _150  and  _153
REMARK   60  A    between atoms: _153  and  _154
REMARK   61  A    between atoms: _159  and  _161
REMARK   62  A    between atoms: _161  and  _162
REMARK   63  A    between atoms: _161  and  _164
REMARK   64  A    between atoms: _164  and  _165
REMARK   65  A    between atoms: _168  and  _170
REMARK   66  A    between atoms: _170  and  _171
REMARK   67  A    between atoms: _170  and  _173
REMARK   68  A    between atoms: _173  and  _174
REMARK   69  A    between atoms: _179  and  _181
REMARK   70  A    between atoms: _181  and  _182
REMARK   71  A    between atoms: _181  and  _184
REMARK   72  A    between atoms: _184  and  _185
REMARK   73  A    between atoms: _191  and  _193
REMARK   74  A    between atoms: _193  and  _194
REMARK   75  A    between atoms: _193  and  _196
REMARK   76  A    between atoms: _196  and  _197
REMARK   77  A    between atoms: _203  and  _205
REMARK   78  A    between atoms: _205  and  _206
REMARK   79  A    between atoms: _205  and  _208
REMARK   80  A    between atoms: _208  and  _209
REMARK   81  A    between atoms: _209  and  _210
REMARK   82  A    between atoms: _213  and  _215
REMARK   83  A    between atoms: _215  and  _216
REMARK   84  A    between atoms: _215  and  _218
REMARK   85  A    between atoms: _218  and  _219
REMARK   86  A    between atoms: _219  and  _220
REMARK   87  A    between atoms: _220  and  _221
REMARK   88  A    between atoms: _230  and  _232
REMARK   89  A    between atoms: _232  and  _233
REMARK   90  A    between atoms: _232  and  _235
REMARK   91  A    between atoms: _235  and  _236
REMARK   92  A    between atoms: _236  and  _237
REMARK   93  A    between atoms: _240  and  _242
REMARK   94  A    between atoms: _242  and  _243
REMARK   95  A    between atoms: _242  and  _245
REMARK   96  A    between atoms: _245  and  _246
REMARK   97  A    between atoms: _251  and  _253
REMARK   98  A    between atoms: _253  and  _254
REMARK   99  A    between atoms: _253  and  _256
REMARK  100  A    between atoms: _256  and  _257
REMARK  101  A    between atoms: _260  and  _262
REMARK  102  A    between atoms: _262  and  _263
REMARK  103  A    between atoms: _262  and  _265
REMARK  104  A    between atoms: _265  and  _266
REMARK  105  A    between atoms: _269  and  _271
REMARK  106  A    between atoms: _271  and  _272
REMARK  107  A    between atoms: _271  and  _274
REMARK  108  A    between atoms: _274  and  _275
REMARK  109  A    between atoms: _280  and  _282
REMARK  110  A    between atoms: _282  and  _283
REMARK  111  A    between atoms: _282  and  _285
REMARK  112  A    between atoms: _285  and  _286
REMARK  113  A    between atoms: _289  and  _291
REMARK  114  A    between atoms: _291  and  _292
REMARK  115  A    between atoms: _291  and  _294
REMARK  116  A    between atoms: _294  and  _295
REMARK  117  A    between atoms: _300  and  _302
REMARK  118  A    between atoms: _302  and  _303
REMARK  119  A    between atoms: _302  and  _305
REMARK  120  A    between atoms: _305  and  _306
REMARK  121  A    between atoms: _311  and  _313
REMARK  122  A    between atoms: _313  and  _314
REMARK  123  A    between atoms: _313  and  _316
REMARK  124  A    between atoms: _316  and  _317
REMARK  125  A    between atoms: _320  and  _322
REMARK  126  A    between atoms: _322  and  _323
REMARK  127  A    between atoms: _322  and  _325
REMARK  128  A    between atoms: _328  and  _330
REMARK  129  A    between atoms: _330  and  _331
REMARK  130  A    between atoms: _330  and  _333
REMARK  131  A    between atoms: _333  and  _334
REMARK  132  A    between atoms: _337  and  _339
REMARK  133  A    between atoms: _339  and  _340
REMARK  134  A    between atoms: _339  and  _342
REMARK  135  A    between atoms: _342  and  _343
REMARK  136  A    between atoms: _343  and  _344
REMARK  137  A    between atoms: _347  and  _349
REMARK  138  A    between atoms: _349  and  _350
REMARK  139  A    between atoms: _353  and  _355
REMARK  140  A    between atoms: _355  and  _356
REMARK  141  A    between atoms: _355  and  _358
REMARK  142  A    between atoms: _358  and  _359
REMARK  143  A    between atoms: _362  and  _364
REMARK  144  A    between atoms: _364  and  _365
REMARK  145  A    between atoms: _364  and  _367
REMARK  146  A    between atoms: _367  and  _368
REMARK  147  A    between atoms: _368  and  _369
REMARK  148  A    between atoms: _372  and  _374
REMARK  149  A    between atoms: _374  and  _375
REMARK  150  A    between atoms: _374  and  _377
REMARK  151  A    between atoms: _377  and  _378
REMARK  152  A    between atoms: _383  and  _385
REMARK  153  A    between atoms: _385  and  _386
REMARK  154  A    between atoms: _388  and  _390
REMARK  155  A    between atoms: _390  and  _391
REMARK  156  A    between atoms: _390  and  _393
REMARK  157  A    between atoms: _396  and  _398
REMARK  158  A    between atoms: _398  and  _399
REMARK  159  A    between atoms: _402  and  _404
REMARK  160  A    between atoms: _404  and  _405
REMARK  161  A    between atoms: _404  and  _407
REMARK  162  A    between atoms: _407  and  _408
REMARK  163  A    between atoms: _413  and  _415
REMARK  164  A    between atoms: _415  and  _416
REMARK  165  A    between atoms: _415  and  _418
REMARK  166  A    between atoms: _418  and  _419
REMARK  167  A    between atoms: _419  and  _420
REMARK  168  A    between atoms: _420  and  _421
REMARK  169  A    between atoms: _421  and  _422
REMARK  170  A    between atoms: _426  and  _428
REMARK  171  A    between atoms: _428  and  _429
REMARK  172  A    between atoms: _428  and  _431
REMARK  173  A    between atoms: _431  and  _432
REMARK  174  A    between atoms: _435  and  _437
REMARK  175  A    between atoms: _437  and  _438
REMARK  176  A    between atoms: _437  and  _440
REMARK  177  A    between atoms: _440  and  _441
REMARK  178  A    between atoms: _446  and  _448
REMARK  179  A    between atoms: _448  and  _449
REMARK  180  A    between atoms: _451  and  _453
REMARK  181  A    between atoms: _453  and  _454
REMARK  182  A    between atoms: _453  and  _456
REMARK  183  A    between atoms: _456  and  _457
REMARK  184  A    between atoms: _457  and  _458
REMARK  185  A    between atoms: _458  and  _459
REMARK  186  A    between atoms: _459  and  _460
REMARK  187  A    between atoms: _464  and  _466
REMARK  188  A    between atoms: _466  and  _467
REMARK  189  A    between atoms: _466  and  _469
REMARK  190  A    between atoms: _469  and  _470
REMARK  191  A    between atoms: _470  and  _471
REMARK  192  A    between atoms: _471  and  _472
REMARK  193  A    between atoms: _481  and  _483
REMARK  194  A    between atoms: _483  and  _484
REMARK  195  A    between atoms: _483  and  _486
REMARK  196  A    between atoms: _486  and  _487
REMARK  197  A    between atoms: _492  and  _494
REMARK  198  A    between atoms: _494  and  _495
REMARK  199  A    between atoms: _494  and  _497
REMARK  200  A    between atoms: _497  and  _498
REMARK  201  A    between atoms: _503  and  _504
REMARK  202  A    between atoms: _506  and  _508
REMARK  203  A    between atoms: _508  and  _509
REMARK  204  A    between atoms: _508  and  _511
REMARK  205  A    between atoms: _511  and  _512
REMARK  206  A    between atoms: _512  and  _513
REMARK  207  A    between atoms: _513  and  _514
REMARK  208  A    between atoms: _514  and  _515
REMARK  209  A    between atoms: _519  and  _521
REMARK  210  A    between atoms: _521  and  _522
REMARK  211  A    between atoms: _521  and  _524
REMARK  212  A    between atoms: _524  and  _525
REMARK  213  A    between atoms: _527  and  _529
REMARK  214  A    between atoms: _529  and  _530
REMARK  215  A    between atoms: _529  and  _532
REMARK  216  A    between atoms: _532  and  _533
REMARK  217  A    between atoms: _536  and  _538
REMARK  218  A    between atoms: _538  and  _539
REMARK  219  A    between atoms: _538  and  _541
REMARK  220  A    between atoms: _541  and  _542
REMARK  221  A    between atoms: _542  and  _543
REMARK  222  A    between atoms: _546  and  _548
REMARK  223  A    between atoms: _548  and  _549
REMARK  224  A    between atoms: _552  and  _554
REMARK  225  A    between atoms: _554  and  _555
REMARK  226  A    between atoms: _554  and  _557
REMARK  227  A    between atoms: _557  and  _558
REMARK  228  A    between atoms: _560  and  _562
REMARK  229  A    between atoms: _562  and  _563
REMARK  230  A    between atoms: _565  and  _567
REMARK  231  A    between atoms: _567  and  _568
REMARK  232  A    between atoms: _567  and  _570
REMARK  233  A    between atoms: _570  and  _571
REMARK  234  A    between atoms: _574  and  _576
REMARK  235  A    between atoms: _576  and  _577
REMARK  236  A    between atoms: _579  and  _581
REMARK  237  A    between atoms: _581  and  _582
REMARK  238  A    between atoms: _581  and  _584
REMARK  239  A    between atoms: _584  and  _585
REMARK  240  A    between atoms: _590  and  _592
REMARK  241  A    between atoms: _592  and  _593
REMARK  242  A    between atoms: _592  and  _595
REMARK  243  A    between atoms: _595  and  _596
REMARK  244  A    between atoms: _596  and  _597
REMARK  245  A    between atoms: _604  and  _605
REMARK  246  A    between atoms: _605  and  _621
REMARK  247  A    between atoms: _606  and  _608
REMARK  248  A    between atoms: _608  and  _609
REMARK  249  A    between atoms: _609  and  _610
REMARK  250  A    between atoms: _614  and  _616
REMARK  251  A    between atoms: _616  and  _617
REMARK  252  A    between atoms: _616  and  _624
REMARK  253  A    between atoms: _617  and  _618
REMARK  254  A    between atoms: _618  and  _619
REMARK  255  A    between atoms: _619  and  _620
REMARK  256  A    between atoms: _620  and  _621
REMARK  257  A    between atoms: _626  and  _628
REMARK  258  A    between atoms: _628  and  _629
REMARK  259  A    between atoms: _628  and  _631
REMARK  260  A    between atoms: _631  and  _632
REMARK  261  A    between atoms: _635  and  _637
REMARK  262  A    between atoms: _637  and  _638
REMARK  263  A    between atoms: _640  and  _642
REMARK  264  A    between atoms: _642  and  _643
REMARK  265  A    between atoms: _646  and  _648
REMARK  266  A    between atoms: _648  and  _649
REMARK  267  A    between atoms: _648  and  _651
REMARK  268  A    between atoms: _651  and  _652
REMARK  269  A    between atoms: _657  and  _658
REMARK                            x       y       z     vdW  Elec       q    Type
REMARK                         _______ _______ _______ _____ _____    ______ ____
ROOT
ATOM      1  CA  ASP A   5      33.512  28.982  31.449  0.00  0.00    +0.160 C 
ENDROOT
BRANCH   1   4
ATOM      2  C   ASN A   4      34.093  29.596  33.745  0.00  0.00    +0.241 C 
ATOM      3  O   ASN A   4      34.250  28.429  34.108  0.00  0.00    -0.273 OA
ATOM      4  N   ASP A   5      33.684  29.942  32.529  0.00  0.00    -0.297 N 
ATOM      5  H   ASP A   5      33.478  30.944  32.341  0.00  0.00    +0.150 HD
BRANCH   2   6
ATOM      6  CA  ASN A   4      34.368  30.754  34.692  0.00  0.00    +0.158 C 
BRANCH   6   8
ATOM      7  C   PRO A   3      32.541  31.162  36.247  0.00  0.00    +0.241 C 
ATOM      8  N   ASN A   4      33.728  30.616  36.002  0.00  0.00    -0.297 N 
ATOM      9  H   ASN A   4      34.210  30.082  36.753  0.00  0.00    +0.150 HD
ATOM     10  O   PRO A   3      31.922  31.820  35.408  0.00  0.00    -0.273 OA
BRANCH   7  16
ATOM     11  C   TYR A   2      33.403  29.529  39.043  0.00  0.00    +0.244 C 
ATOM     12  N   PRO A   3      32.884  30.732  38.729  0.00  0.00    -0.272 N 
ATOM     13  CD  PRO A   3      33.163  31.990  39.446  0.00  0.00    +0.094 C 
ATOM     14  CG  PRO A   3      32.222  32.990  38.798  0.00  0.00    +0.024 C 
ATOM     15  CB  PRO A   3      31.174  32.193  38.088  0.00  0.00    +0.031 C 
ATOM     16  CA  PRO A   3      31.928  30.939  37.636  0.00  0.00    +0.152 C 
ATOM     17  O   TYR A   2      33.235  28.525  38.353  0.00  0.00    -0.273 OA
BRANCH  11  18
ATOM     18  CA  TYR A   2      34.186  29.434  40.354  0.00  0.00    +0.153 C 
BRANCH  18  21
ATOM     19  C   LEU A   1      32.313  28.669  41.697  0.00  0.00    +0.238 C 
ATOM     20  O   LEU A   1      31.730  29.753  41.594  0.00  0.00    -0.274 OA
ATOM     21  N   TYR A   2      33.541  28.457  41.226  0.00  0.00    -0.297 N 
ATOM     22  H   TYR A   2      34.046  27.585  41.483  0.00  0.00    +0.150 HD
BRANCH  19  23
ATOM     23  CA  LEU A   1      31.639  27.490  42.394  0.00  0.00    +0.145 C 
BRANCH  23  24
ATOM     24  N   LEU A   1      31.124  27.889  43.695  0.00  0.00    -0.238 NA
ATOM     25  H   LEU A   1      30.094  27.919  43.832  0.00  0.00    +0.142 HD
ENDBRANCH  23  24
BRANCH  23  26
ATOM     26  CB  LEU A   1      30.492  26.956  41.521  0.00  0.00    +0.026 C 
BRANCH  26  27
ATOM     27  CG  LEU A   1      30.711  26.755  40.014  0.00  0.00    +0.002 C 
ATOM     28  CD2 LEU A   1      31.537  25.501  39.728  0.00  0.00    +0.000 C 
ATOM     29  CD1 LEU A   1      29.369  26.679  39.304  0.00  0.00    +0.000 C 
ENDBRANCH  26  27
ENDBRANCH  23  26
ENDBRANCH  19  23
ENDBRANCH  18  21
BRANCH  18  30
ATOM     30  CB  TYR A   2      35.666  29.095  40.127  0.00  0.00    +0.055 C 
BRANCH  30  31
ATOM     31  CG  TYR A   2      36.538  29.689  41.206  0.00  0.00    -0.020 A 
ATOM     32  CD2 TYR A   2      36.732  29.025  42.420  0.00  0.00    -0.001 A 
ATOM     33  CE2 TYR A   2      37.520  29.581  43.426  0.00  0.00    +0.036 A 
ATOM     34  CZ  TYR A   2      38.104  30.822  43.226  0.00  0.00    +0.134 A 
ATOM     35  CE1 TYR A   2      37.922  31.506  42.032  0.00  0.00    +0.036 A 
ATOM     36  CD1 TYR A   2      37.134  30.940  41.032  0.00  0.00    -0.001 A 
BRANCH  34  37
ATOM     37  OH  TYR A   2      38.875  31.381  44.217  0.00  0.00    -0.506 OA
ATOM     38  HH  TYR A   2      38.482  32.248  44.490  0.00  0.00    +0.292 HD
ENDBRANCH  34  37
ENDBRANCH  30  31
ENDBRANCH  18  30
ENDBRANCH  11  18
ENDBRANCH   7  16
ENDBRANCH   6   8
BRANCH   6  39
ATOM     39  CB  ASN A   4      35.873  30.942  34.837  0.00  0.00    +0.114 C 
BRANCH  39  40
ATOM     40  CG  ASN A   4      36.227  32.120  35.711  0.00  0.00    +0.222 C 
ATOM     41  ND2 ASN A   4      37.053  31.876  36.721  0.00  0.00    -0.329 N 
ATOM     42 HD21 ASN A   4      37.328  32.645  37.365  0.00  0.00    +0.145 HD
ATOM     43 HD22 ASN A   4      37.425  30.916  36.868  0.00  0.00    +0.145 HD
ATOM     44  OD1 ASN A   4      35.757  33.238  35.491  0.00  0.00    -0.275 OA
ENDBRANCH  39  40
ENDBRANCH   6  39
ENDBRANCH   2   6
ENDBRANCH   1   4
BRANCH   1  45
ATOM     45  C   ASP A   5      34.709  29.146  30.517  0.00  0.00    +0.241 C 
ATOM     46  N   ASN A   6      35.458  28.065  30.303  0.00  0.00    -0.297 N 
ATOM     47  H   ASN A   6      35.201  27.176  30.779  0.00  0.00    +0.150 HD
ATOM     48  O   ASP A   5      34.966  30.244  30.027  0.00  0.00    -0.273 OA
BRANCH  46  49
ATOM     49  CA  ASN A   6      36.632  28.081  29.421  0.00  0.00    +0.158 C 
BRANCH  49  50
ATOM     50  C   ASN A   6      37.682  29.137  29.764  0.00  0.00    +0.241 C 
ATOM     51  N   PHE A   7      37.967  29.289  31.054  0.00  0.00    -0.297 N 
ATOM     52  H   PHE A   7      37.460  28.715  31.758  0.00  0.00    +0.150 HD
ATOM     53  O   ASN A   6      38.220  29.803  28.877  0.00  0.00    -0.273 OA
BRANCH  51  54
ATOM     54  CA  PHE A   7      38.975  30.243  31.504  0.00  0.00    +0.153 C 
BRANCH  54  55
ATOM     55  C   PHE A   7      39.612  29.759  32.796  0.00  0.00    +0.241 C 
ATOM     56  O   PHE A   7      38.912  29.414  33.749  0.00  0.00    -0.273 OA
ATOM     57  N   PHE A   8      40.943  29.723  32.806  0.00  0.00    -0.297 N 
ATOM     58  H   PHE A   8      41.460  29.982  31.942  0.00  0.00    +0.150 HD
BRANCH  57  59
ATOM     59  CA  PHE A   8      41.698  29.332  33.989  0.00  0.00    +0.153 C 
BRANCH  59  60
ATOM     60  C   PHE A   8      42.051  30.561  34.813  0.00  0.00    +0.241 C 
ATOM     61  N   GLU A   9      41.590  30.556  36.058  0.00  0.00    -0.298 N 
ATOM     62  H   GLU A   9      40.970  29.776  36.356  0.00  0.00    +0.150 HD
ATOM     63  O   PHE A   8      42.708  31.484  34.328  0.00  0.00    -0.273 OA
BRANCH  61  64
ATOM     64  CA  GLU A   9      41.914  31.590  37.019  0.00  0.00    +0.137 C 
BRANCH  64  65
ATOM     65  C   GLU A   9      42.680  30.934  38.165  0.00  0.00    +0.227 C 
ATOM     66  O   GLU A   9      42.117  30.135  38.924  0.00  0.00    -0.286 OA
ENDBRANCH  64  65
BRANCH  64  67
ATOM     67  CB  GLU A   9      40.627  32.231  37.523  0.00  0.00    +0.039 C 
BRANCH  67  68
ATOM     68  CG  GLU A   9      40.838  33.418  38.425  0.00  0.00    +0.116 C 
BRANCH  68  69
ATOM     69  CD  GLU A   9      39.541  33.921  39.002  0.00  0.00    +0.365 C 
ATOM     70  OE2 GLU A   9      39.588  34.794  39.895  0.00  0.00    -0.246 OA
ATOM     71  OE1 GLU A   9      38.469  33.445  38.563  0.00  0.00    -0.246 OA
ENDBRANCH  68  69
ENDBRANCH  67  68
ENDBRANCH  64  67
ENDBRANCH  61  64
ENDBRANCH  59  60
BRANCH  59  72
ATOM     72  CB  PHE A   8      42.968  28.557  33.612  0.00  0.00    +0.055 C 
BRANCH  72  73
ATOM     73  CG  PHE A   8      43.944  28.382  34.753  0.00  0.00    -0.020 A 
ATOM     74  CD2 PHE A   8      43.592  27.652  35.887  0.00  0.00    -0.004 A 
ATOM     75  CE2 PHE A   8      44.492  27.487  36.939  0.00  0.00    -0.000 A 
ATOM     76  CZ  PHE A   8      45.757  28.063  36.868  0.00  0.00    -0.000 A 
ATOM     77  CE1 PHE A   8      46.119  28.800  35.742  0.00  0.00    -0.000 A 
ATOM     78  CD1 PHE A   8      45.212  28.956  34.695  0.00  0.00    -0.004 A 
ENDBRANCH  72  73
ENDBRANCH  59  72
ENDBRANCH  57  59
ENDBRANCH  54  55
BRANCH  54  79
ATOM     79  CB  PHE A   7      38.364  31.640  31.687  0.00  0.00    +0.055 C 
BRANCH  79  80
ATOM     80  CG  PHE A   7      39.366  32.704  32.068  0.00  0.00    -0.020 A 
ATOM     81  CD2 PHE A   7      39.400  33.212  33.363  0.00  0.00    -0.004 A 
ATOM     82  CE2 PHE A   7      40.317  34.199  33.723  0.00  0.00    -0.000 A 
ATOM     83  CZ  PHE A   7      41.211  34.687  32.783  0.00  0.00    -0.000 A 
ATOM     84  CE1 PHE A   7      41.185  34.191  31.480  0.00  0.00    -0.000 A 
ATOM     85  CD1 PHE A   7      40.265  33.206  31.130  0.00  0.00    -0.004 A 
ENDBRANCH  79  80
ENDBRANCH  54  79
ENDBRANCH  51  54
ENDBRANCH  49  50
BRANCH  49  86
ATOM     86  CB  ASN A   6      36.205  28.221  27.955  0.00  0.00    +0.114 C 
BRANCH  86  87
ATOM     87  CG  ASN A   6      35.809  26.905  27.342  0.00  0.00    +0.222 C 
ATOM     88  ND2 ASN A   6      36.769  26.003  27.225  0.00  0.00    -0.329 N 
ATOM     89 HD21 ASN A   6      37.735  26.228  27.539  0.00  0.00    +0.145 HD
ATOM     90 HD22 ASN A   6      36.558  25.069  26.819  0.00  0.00    +0.145 HD
ATOM     91  OD1 ASN A   6      34.649  26.693  26.987  0.00  0.00    -0.275 OA
ENDBRANCH  86  87
ENDBRANCH  49  86
ENDBRANCH  46  49
ENDBRANCH   1  45
BRANCH   1  92
ATOM     92  CB  ASP A   5      32.201  29.266  30.710  0.00  0.00    +0.143 C 
BRANCH  92  93
ATOM     93  CG  ASP A   5      31.786  28.137  29.790  0.00  0.00    +0.367 C 
ATOM     94  OD2 ASP A   5      30.892  27.359  30.182  0.00  0.00    -0.246 OA
ATOM     95  OD1 ASP A   5      32.346  28.025  28.678  0.00  0.00    -0.246 OA
ENDBRANCH  92  93
ENDBRANCH   1  92
TORSDOF 35
REMARK  Name = ../refined-set-2016/2qrp/2qrp_pocket.pdb
REMARK  269 active torsions:
REMARK  status: ('A' for Active; 'I' for Inactive)
REMARK    1  A    between atoms: _1  and  _3
REMARK    2  A    between atoms: _3  and  _4
REMARK    3  A    between atoms: _3  and  _6
REMARK    4  A    between atoms: _6  and  _7
REMARK    5  A    between atoms: _12  and  _13
REMARK    6  A    between atoms: _15  and  _17
REMARK    7  A    between atoms: _17  and  _18
REMARK    8  A    between atoms: _17  and  _20
REMARK    9  A    between atoms: _20  and  _21
REMARK   10  A    between atoms: _24  and  _26
REMARK   11  A    between atoms: _26  and  _27
REMARK   12  A    between atoms: _26  and  _29
REMARK   13  A    between atoms: _29  and  _30
REMARK   14  A    between atoms: _30  and  _31
REMARK   15  A    between atoms: _34  and  _36
REMARK   16  A    between atoms: _36  and  _37
REMARK   17  A    between atoms: _39  and  _41
REMARK   18  A    between atoms: _41  and  _42
REMARK   19  A    between atoms: _41  and  _44
REMARK   20  A    between atoms: _44  and  _45
REMARK   21  A    between atoms: _50  and  _52
REMARK   22  A    between atoms: _52  and  _53
REMARK   23  A    between atoms: _55  and  _57
REMARK   24  A    between atoms: _57  and  _58
REMARK   25  A    between atoms: _60  and  _62
REMARK   26  A    between atoms: _62  and  _63
REMARK   27  A    between atoms: _62  and  _65
REMARK   28  A    between atoms: _65  and  _66
REMARK   29  A    between atoms: _69  and  _71
REMARK   30  A    between atoms: _71  and  _72
REMARK   31  A    between atoms: _74  and  _76
REMARK   32  A    between atoms: _76  and  _77
REMARK   33  A    between atoms: _76  and  _79
REMARK   34  A    between atoms: _79  and  _80
REMARK   35  A    between atoms: _80  and  _81
REMARK   36  A    between atoms: _81  and  _82
REMARK   37  A    between atoms: _91  and  _93
REMARK   38  A    between atoms: _93  and  _94
REMARK   39  A    between atoms: _93  and  _96
REMARK   40  A    between atoms: _96  and  _97
REMARK   41  A    between atoms: _100  and  _102
REMARK   42  A    between atoms: _102  and  _103
REMARK   43  A    between atoms: _106  and  _108
REMARK   44  A    between atoms: _108  and  _109
REMARK   45  A    between atoms: _108  and  _111
REMARK   46  A    between atoms: _111  and  _112
REMARK   47  A    between atoms: _118  and  _120
REMARK   48  A    between atoms: _120  and  _121
REMARK   49  A    between atoms: _120  and  _123
REMARK   50  A    between atoms: _123  and  _124
REMARK   51  A    between atoms: _127  and  _129
REMARK   52  A    between atoms: _129  and  _130
REMARK   53  A    between atoms: _129  and  _132
REMARK   54  A    between atoms: _132  and  _133
REMARK   55  A    between atoms: _138  and  _139
REMARK   56  A    between atoms: _142  and  _143
REMARK   57  A    between atoms: _148  and  _150
REMARK   58  A    between atoms: _150  and  _151
REMARK   59  A    between atoms: _150  and  _153
REMARK   60  A    between atoms: _153  and  _154
REMARK   61  A    between atoms: _159  and  _161
REMARK   62  A    between atoms: _161  and  _162
REMARK   63  A    between atoms: _161  and  _164
REMARK   64  A    between atoms: _164  and  _165
REMARK   65  A    between atoms: _168  and  _170
REMARK   66  A    between atoms: _170  and  _171
REMARK   67  A    between atoms: _170  and  _173
REMARK   68  A    between atoms: _173  and  _174
REMARK   69  A    between atoms: _179  and  _181
REMARK   70  A    between atoms: _181  and  _182
REMARK   71  A    between atoms: _181  and  _184
REMARK   72  A    between atoms: _184  and  _185
REMARK   73  A    between atoms: _191  and  _193
REMARK   74  A    between atoms: _193  and  _194
REMARK   75  A    between atoms: _193  and  _196
REMARK   76  A    between atoms: _196  and  _197
REMARK   77  A    between atoms: _203  and  _205
REMARK   78  A    between atoms: _205  and  _206
REMARK   79  A    between atoms: _205  and  _208
REMARK   80  A    between atoms: _208  and  _209
REMARK   81  A    between atoms: _209  and  _210
REMARK   82  A    between atoms: _213  and  _215
REMARK   83  A    between atoms: _215  and  _216
REMARK   84  A    between atoms: _215  and  _218
REMARK   85  A    between atoms: _218  and  _219
REMARK   86  A    between atoms: _219  and  _220
REMARK   87  A    between atoms: _220  and  _221
REMARK   88  A    between atoms: _230  and  _232
REMARK   89  A    between atoms: _232  and  _233
REMARK   90  A    between atoms: _232  and  _235
REMARK   91  A    between atoms: _235  and  _236
REMARK   92  A    between atoms: _236  and  _237
REMARK   93  A    between atoms: _240  and  _242
REMARK   94  A    between atoms: _242  and  _243
REMARK   95  A    between atoms: _242  and  _245
REMARK   96  A    between atoms: _245  and  _246
REMARK   97  A    between atoms: _251  and  _253
REMARK   98  A    between atoms: _253  and  _254
REMARK   99  A    between atoms: _253  and  _256
REMARK  100  A    between atoms: _256  and  _257
REMARK  101  A    between atoms: _260  and  _262
REMARK  102  A    between atoms: _262  and  _263
REMARK  103  A    between atoms: _262  and  _265
REMARK  104  A    between atoms: _265  and  _266
REMARK  105  A    between atoms: _269  and  _271
REMARK  106  A    between atoms: _271  and  _272
REMARK  107  A    between atoms: _271  and  _274
REMARK  108  A    between atoms: _274  and  _275
REMARK  109  A    between atoms: _280  and  _282
REMARK  110  A    between atoms: _282  and  _283
REMARK  111  A    between atoms: _282  and  _285
REMARK  112  A    between atoms: _285  and  _286
REMARK  113  A    between atoms: _289  and  _291
REMARK  114  A    between atoms: _291  and  _292
REMARK  115  A    between atoms: _291  and  _294
REMARK  116  A    between atoms: _294  and  _295
REMARK  117  A    between atoms: _300  and  _302
REMARK  118  A    between atoms: _302  and  _303
REMARK  119  A    between atoms: _302  and  _305
REMARK  120  A    between atoms: _305  and  _306
REMARK  121  A    between atoms: _311  and  _313
REMARK  122  A    between atoms: _313  and  _314
REMARK  123  A    between atoms: _313  and  _316
REMARK  124  A    between atoms: _316  and  _317
REMARK  125  A    between atoms: _320  and  _322
REMARK  126  A    between atoms: _322  and  _323
REMARK  127  A    between atoms: _322  and  _325
REMARK  128  A    between atoms: _328  and  _330
REMARK  129  A    between atoms: _330  and  _331
REMARK  130  A    between atoms: _330  and  _333
REMARK  131  A    between atoms: _333  and  _334
REMARK  132  A    between atoms: _337  and  _339
REMARK  133  A    between atoms: _339  and  _340
REMARK  134  A    between atoms: _339  and  _342
REMARK  135  A    between atoms: _342  and  _343
REMARK  136  A    between atoms: _343  and  _344
REMARK  137  A    between atoms: _347  and  _349
REMARK  138  A    between atoms: _349  and  _350
REMARK  139  A    between atoms: _353  and  _355
REMARK  140  A    between atoms: _355  and  _356
REMARK  141  A    between atoms: _355  and  _358
REMARK  142  A    between atoms: _358  and  _359
REMARK  143  A    between atoms: _362  and  _364
REMARK  144  A    between atoms: _364  and  _365
REMARK  145  A    between atoms: _364  and  _367
REMARK  146  A    between atoms: _367  and  _368
REMARK  147  A    between atoms: _368  and  _369
REMARK  148  A    between atoms: _372  and  _374
REMARK  149  A    between atoms: _374  and  _375
REMARK  150  A    between atoms: _374  and  _377
REMARK  151  A    between atoms: _377  and  _378
REMARK  152  A    between atoms: _383  and  _385
REMARK  153  A    between atoms: _385  and  _386
REMARK  154  A    between atoms: _388  and  _390
REMARK  155  A    between atoms: _390  and  _391
REMARK  156  A    between atoms: _390  and  _393
REMARK  157  A    between atoms: _396  and  _398
REMARK  158  A    between atoms: _398  and  _399
REMARK  159  A    between atoms: _402  and  _404
REMARK  160  A    between atoms: _404  and  _405
REMARK  161  A    between atoms: _404  and  _407
REMARK  162  A    between atoms: _407  and  _408
REMARK  163  A    between atoms: _413  and  _415
REMARK  164  A    between atoms: _415  and  _416
REMARK  165  A    between atoms: _415  and  _418
REMARK  166  A    between atoms: _418  and  _419
REMARK  167  A    between atoms: _419  and  _420
REMARK  168  A    between atoms: _420  and  _421
REMARK  169  A    between atoms: _421  and  _422
REMARK  170  A    between atoms: _426  and  _428
REMARK  171  A    between atoms: _428  and  _429
REMARK  172  A    between atoms: _428  and  _431
REMARK  173  A    between atoms: _431  and  _432
REMARK  174  A    between atoms: _435  and  _437
REMARK  175  A    between atoms: _437  and  _438
REMARK  176  A    between atoms: _437  and  _440
REMARK  177  A    between atoms: _440  and  _441
REMARK  178  A    between atoms: _446  and  _448
REMARK  179  A    between atoms: _448  and  _449
REMARK  180  A    between atoms: _451  and  _453
REMARK  181  A    between atoms: _453  and  _454
REMARK  182  A    between atoms: _453  and  _456
REMARK  183  A    between atoms: _456  and  _457
REMARK  184  A    between atoms: _457  and  _458
REMARK  185  A    between atoms: _458  and  _459
REMARK  186  A    between atoms: _459  and  _460
REMARK  187  A    between atoms: _464  and  _466
REMARK  188  A    between atoms: _466  and  _467
REMARK  189  A    between atoms: _466  and  _469
REMARK  190  A    between atoms: _469  and  _470
REMARK  191  A    between atoms: _470  and  _471
REMARK  192  A    between atoms: _471  and  _472
REMARK  193  A    between atoms: _481  and  _483
REMARK  194  A    between atoms: _483  and  _484
REMARK  195  A    between atoms: _483  and  _486
REMARK  196  A    between atoms: _486  and  _487
REMARK  197  A    between atoms: _492  and  _494
REMARK  198  A    between atoms: _494  and  _495
REMARK  199  A    between atoms: _494  and  _497
REMARK  200  A    between atoms: _497  and  _498
REMARK  201  A    between atoms: _503  and  _504
REMARK  202  A    between atoms: _506  and  _508
REMARK  203  A    between atoms: _508  and  _509
REMARK  204  A    between atoms: _508  and  _511
REMARK  205  A    between atoms: _511  and  _512
REMARK  206  A    between atoms: _512  and  _513
REMARK  207  A    between atoms: _513  and  _514
REMARK  208  A    between atoms: _514  and  _515
REMARK  209  A    between atoms: _519  and  _521
REMARK  210  A    between atoms: _521  and  _522
REMARK  211  A    between atoms: _521  and  _524
REMARK  212  A    between atoms: _524  and  _525
REMARK  213  A    between atoms: _527  and  _529
REMARK  214  A    between atoms: _529  and  _530
REMARK  215  A    between atoms: _529  and  _532
REMARK  216  A    between atoms: _532  and  _533
REMARK  217  A    between atoms: _536  and  _538
REMARK  218  A    between atoms: _538  and  _539
REMARK  219  A    between atoms: _538  and  _541
REMARK  220  A    between atoms: _541  and  _542
REMARK  221  A    between atoms: _542  and  _543
REMARK  222  A    between atoms: _546  and  _548
REMARK  223  A    between atoms: _548  and  _549
REMARK  224  A    between atoms: _552  and  _554
REMARK  225  A    between atoms: _554  and  _555
REMARK  226  A    between atoms: _554  and  _557
REMARK  227  A    between atoms: _557  and  _558
REMARK  228  A    between atoms: _560  and  _562
REMARK  229  A    between atoms: _562  and  _563
REMARK  230  A    between atoms: _565  and  _567
REMARK  231  A    between atoms: _567  and  _568
REMARK  232  A    between atoms: _567  and  _570
REMARK  233  A    between atoms: _570  and  _571
REMARK  234  A    between atoms: _574  and  _576
REMARK  235  A    between atoms: _576  and  _577
REMARK  236  A    between atoms: _579  and  _581
REMARK  237  A    between atoms: _581  and  _582
REMARK  238  A    between atoms: _581  and  _584
REMARK  239  A    between atoms: _584  and  _585
REMARK  240  A    between atoms: _590  and  _592
REMARK  241  A    between atoms: _592  and  _593
REMARK  242  A    between atoms: _592  and  _595
REMARK  243  A    between atoms: _595  and  _596
REMARK  244  A    between atoms: _596  and  _597
REMARK  245  A    between atoms: _604  and  _605
REMARK  246  A    between atoms: _605  and  _621
REMARK  247  A    between atoms: _606  and  _608
REMARK  248  A    between atoms: _608  and  _609
REMARK  249  A    between atoms: _609  and  _610
REMARK  250  A    between atoms: _614  and  _616
REMARK  251  A    between atoms: _616  and  _617
REMARK  252  A    between atoms: _616  and  _624
REMARK  253  A    between atoms: _617  and  _618
REMARK  254  A    between atoms: _618  and  _619
REMARK  255  A    between atoms: _619  and  _620
REMARK  256  A    between atoms: _620  and  _621
REMARK  257  A    between atoms: _626  and  _628
REMARK  258  A    between atoms: _628  and  _629
REMARK  259  A    between atoms: _628  and  _631
REMARK  260  A    between atoms: _631  and  _632
REMARK  261  A    between atoms: _635  and  _637
REMARK  262  A    between atoms: _637  and  _638
REMARK  263  A    between atoms: _640  and  _642
REMARK  264  A    between atoms: _642  and  _643
REMARK  265  A    between atoms: _646  and  _648
REMARK  266  A    between atoms: _648  and  _649
REMARK  267  A    between atoms: _648  and  _651
REMARK  268  A    between atoms: _651  and  _652
REMARK  269  A    between atoms: _657  and  _658
REMARK                            x       y       z     vdW  Elec       q    Type
REMARK                         _______ _______ _______ _____ _____    ______ ____
ROOT
ATOM      1  NE  ARG A   1      39.019  25.287  39.540  0.00  0.00    -0.265 N 
ATOM      2  HE  ARG A   1      39.908  25.014  39.074  0.00  0.00    +0.259 HD
ATOM      3  CZ  ARG A   1      37.883  24.949  38.937  0.00  0.00    +0.342 C 
ATOM      4  NH2 ARG A   1      36.708  25.250  39.480  0.00  0.00    -0.292 N 
ATOM      5 HH21 ARG A   1      36.669  25.756  40.388  0.00  0.00    +0.255 HD
ATOM      6 HH22 ARG A   1      35.827  24.979  38.997  0.00  0.00    +0.255 HD
ATOM      7  NH1 ARG A   1      37.930  24.311  37.774  0.00  0.00    -0.292 N 
ATOM      8 HH11 ARG A   1      38.848  24.081  37.344  0.00  0.00    +0.255 HD
ATOM      9 HH12 ARG A   1      37.048  24.041  37.293  0.00  0.00    +0.255 HD
ENDROOT
BRANCH   1  10
ATOM     10  CD  ARG A   1      39.119  26.011  40.805  0.00  0.00    +0.174 C 
BRANCH  10  11
ATOM     11  CG  ARG A   1      40.451  26.763  40.879  0.00  0.00    +0.045 C 
BRANCH  11  12
ATOM     12  CB  ARG A   1      40.531  27.743  42.054  0.00  0.00    +0.029 C 
BRANCH  12  13
ATOM     13  CA  ARG A   1      40.477  27.113  43.457  0.00  0.00    +0.133 C 
BRANCH  13  14
ATOM     14  N   ARG A   1      40.799  28.105  44.482  0.00  0.00    -0.239 NA
ATOM     15  H   ARG A   1      41.125  29.048  44.190  0.00  0.00    +0.142 HD
ENDBRANCH  13  14
BRANCH  13  16
ATOM     16  C   ARG A   1      41.392  25.887  43.568  0.00  0.00    +0.224 C 
ATOM     17  O   ARG A   1      40.924  24.752  43.480  0.00  0.00    -0.287 OA
ENDBRANCH  13  16
ENDBRANCH  12  13
ENDBRANCH  11  12
ENDBRANCH  10  11
ENDBRANCH   1  10
TORSDOF 6
REMARK  Name = ../refined-set-2016/2qrp/2qrp_pocket.pdb
REMARK  269 active torsions:
REMARK  status: ('A' for Active; 'I' for Inactive)
REMARK    1  A    between atoms: _1  and  _3
REMARK    2  A    between atoms: _3  and  _4
REMARK    3  A    between atoms: _3  and  _6
REMARK    4  A    between atoms: _6  and  _7
REMARK    5  A    between atoms: _12  and  _13
REMARK    6  A    between atoms: _15  and  _17
REMARK    7  A    between atoms: _17  and  _18
REMARK    8  A    between atoms: _17  and  _20
REMARK    9  A    between atoms: _20  and  _21
REMARK   10  A    between atoms: _24  and  _26
REMARK   11  A    between atoms: _26  and  _27
REMARK   12  A    between atoms: _26  and  _29
REMARK   13  A    between atoms: _29  and  _30
REMARK   14  A    between atoms: _30  and  _31
REMARK   15  A    between atoms: _34  and  _36
REMARK   16  A    between atoms: _36  and  _37
REMARK   17  A    between atoms: _39  and  _41
REMARK   18  A    between atoms: _41  and  _42
REMARK   19  A    between atoms: _41  and  _44
REMARK   20  A    between atoms: _44  and  _45
REMARK   21  A    between atoms: _50  and  _52
REMARK   22  A    between atoms: _52  and  _53
REMARK   23  A    between atoms: _55  and  _57
REMARK   24  A    between atoms: _57  and  _58
REMARK   25  A    between atoms: _60  and  _62
REMARK   26  A    between atoms: _62  and  _63
REMARK   27  A    between atoms: _62  and  _65
REMARK   28  A    between atoms: _65  and  _66
REMARK   29  A    between atoms: _69  and  _71
REMARK   30  A    between atoms: _71  and  _72
REMARK   31  A    between atoms: _74  and  _76
REMARK   32  A    between atoms: _76  and  _77
REMARK   33  A    between atoms: _76  and  _79
REMARK   34  A    between atoms: _79  and  _80
REMARK   35  A    between atoms: _80  and  _81
REMARK   36  A    between atoms: _81  and  _82
REMARK   37  A    between atoms: _91  and  _93
REMARK   38  A    between atoms: _93  and  _94
REMARK   39  A    between atoms: _93  and  _96
REMARK   40  A    between atoms: _96  and  _97
REMARK   41  A    between atoms: _100  and  _102
REMARK   42  A    between atoms: _102  and  _103
REMARK   43  A    between atoms: _106  and  _108
REMARK   44  A    between atoms: _108  and  _109
REMARK   45  A    between atoms: _108  and  _111
REMARK   46  A    between atoms: _111  and  _112
REMARK   47  A    between atoms: _118  and  _120
REMARK   48  A    between atoms: _120  and  _121
REMARK   49  A    between atoms: _120  and  _123
REMARK   50  A    between atoms: _123  and  _124
REMARK   51  A    between atoms: _127  and  _129
REMARK   52  A    between atoms: _129  and  _130
REMARK   53  A    between atoms: _129  and  _132
REMARK   54  A    between atoms: _132  and  _133
REMARK   55  A    between atoms: _138  and  _139
REMARK   56  A    between atoms: _142  and  _143
REMARK   57  A    between atoms: _148  and  _150
REMARK   58  A    between atoms: _150  and  _151
REMARK   59  A    between atoms: _150  and  _153
REMARK   60  A    between atoms: _153  and  _154
REMARK   61  A    between atoms: _159  and  _161
REMARK   62  A    between atoms: _161  and  _162
REMARK   63  A    between atoms: _161  and  _164
REMARK   64  A    between atoms: _164  and  _165
REMARK   65  A    between atoms: _168  and  _170
REMARK   66  A    between atoms: _170  and  _171
REMARK   67  A    between atoms: _170  and  _173
REMARK   68  A    between atoms: _173  and  _174
REMARK   69  A    between atoms: _179  and  _181
REMARK   70  A    between atoms: _181  and  _182
REMARK   71  A    between atoms: _181  and  _184
REMARK   72  A    between atoms: _184  and  _185
REMARK   73  A    between atoms: _191  and  _193
REMARK   74  A    between atoms: _193  and  _194
REMARK   75  A    between atoms: _193  and  _196
REMARK   76  A    between atoms: _196  and  _197
REMARK   77  A    between atoms: _203  and  _205
REMARK   78  A    between atoms: _205  and  _206
REMARK   79  A    between atoms: _205  and  _208
REMARK   80  A    between atoms: _208  and  _209
REMARK   81  A    between atoms: _209  and  _210
REMARK   82  A    between atoms: _213  and  _215
REMARK   83  A    between atoms: _215  and  _216
REMARK   84  A    between atoms: _215  and  _218
REMARK   85  A    between atoms: _218  and  _219
REMARK   86  A    between atoms: _219  and  _220
REMARK   87  A    between atoms: _220  and  _221
REMARK   88  A    between atoms: _230  and  _232
REMARK   89  A    between atoms: _232  and  _233
REMARK   90  A    between atoms: _232  and  _235
REMARK   91  A    between atoms: _235  and  _236
REMARK   92  A    between atoms: _236  and  _237
REMARK   93  A    between atoms: _240  and  _242
REMARK   94  A    between atoms: _242  and  _243
REMARK   95  A    between atoms: _242  and  _245
REMARK   96  A    between atoms: _245  and  _246
REMARK   97  A    between atoms: _251  and  _253
REMARK   98  A    between atoms: _253  and  _254
REMARK   99  A    between atoms: _253  and  _256
REMARK  100  A    between atoms: _256  and  _257
REMARK  101  A    between atoms: _260  and  _262
REMARK  102  A    between atoms: _262  and  _263
REMARK  103  A    between atoms: _262  and  _265
REMARK  104  A    between atoms: _265  and  _266
REMARK  105  A    between atoms: _269  and  _271
REMARK  106  A    between atoms: _271  and  _272
REMARK  107  A    between atoms: _271  and  _274
REMARK  108  A    between atoms: _274  and  _275
REMARK  109  A    between atoms: _280  and  _282
REMARK  110  A    between atoms: _282  and  _283
REMARK  111  A    between atoms: _282  and  _285
REMARK  112  A    between atoms: _285  and  _286
REMARK  113  A    between atoms: _289  and  _291
REMARK  114  A    between atoms: _291  and  _292
REMARK  115  A    between atoms: _291  and  _294
REMARK  116  A    between atoms: _294  and  _295
REMARK  117  A    between atoms: _300  and  _302
REMARK  118  A    between atoms: _302  and  _303
REMARK  119  A    between atoms: _302  and  _305
REMARK  120  A    between atoms: _305  and  _306
REMARK  121  A    between atoms: _311  and  _313
REMARK  122  A    between atoms: _313  and  _314
REMARK  123  A    between atoms: _313  and  _316
REMARK  124  A    between atoms: _316  and  _317
REMARK  125  A    between atoms: _320  and  _322
REMARK  126  A    between atoms: _322  and  _323
REMARK  127  A    between atoms: _322  and  _325
REMARK  128  A    between atoms: _328  and  _330
REMARK  129  A    between atoms: _330  and  _331
REMARK  130  A    between atoms: _330  and  _333
REMARK  131  A    between atoms: _333  and  _334
REMARK  132  A    between atoms: _337  and  _339
REMARK  133  A    between atoms: _339  and  _340
REMARK  134  A    between atoms: _339  and  _342
REMARK  135  A    between atoms: _342  and  _343
REMARK  136  A    between atoms: _343  and  _344
REMARK  137  A    between atoms: _347  and  _349
REMARK  138  A    between atoms: _349  and  _350
REMARK  139  A    between atoms: _353  and  _355
REMARK  140  A    between atoms: _355  and  _356
REMARK  141  A    between atoms: _355  and  _358
REMARK  142  A    between atoms: _358  and  _359
REMARK  143  A    between atoms: _362  and  _364
REMARK  144  A    between atoms: _364  and  _365
REMARK  145  A    between atoms: _364  and  _367
REMARK  146  A    between atoms: _367  and  _368
REMARK  147  A    between atoms: _368  and  _369
REMARK  148  A    between atoms: _372  and  _374
REMARK  149  A    between atoms: _374  and  _375
REMARK  150  A    between atoms: _374  and  _377
REMARK  151  A    between atoms: _377  and  _378
REMARK  152  A    between atoms: _383  and  _385
REMARK  153  A    between atoms: _385  and  _386
REMARK  154  A    between atoms: _388  and  _390
REMARK  155  A    between atoms: _390  and  _391
REMARK  156  A    between atoms: _390  and  _393
REMARK  157  A    between atoms: _396  and  _398
REMARK  158  A    between atoms: _398  and  _399
REMARK  159  A    between atoms: _402  and  _404
REMARK  160  A    between atoms: _404  and  _405
REMARK  161  A    between atoms: _404  and  _407
REMARK  162  A    between atoms: _407  and  _408
REMARK  163  A    between atoms: _413  and  _415
REMARK  164  A    between atoms: _415  and  _416
REMARK  165  A    between atoms: _415  and  _418
REMARK  166  A    between atoms: _418  and  _419
REMARK  167  A    between atoms: _419  and  _420
REMARK  168  A    between atoms: _420  and  _421
REMARK  169  A    between atoms: _421  and  _422
REMARK  170  A    between atoms: _426  and  _428
REMARK  171  A    between atoms: _428  and  _429
REMARK  172  A    between atoms: _428  and  _431
REMARK  173  A    between atoms: _431  and  _432
REMARK  174  A    between atoms: _435  and  _437
REMARK  175  A    between atoms: _437  and  _438
REMARK  176  A    between atoms: _437  and  _440
REMARK  177  A    between atoms: _440  and  _441
REMARK  178  A    between atoms: _446  and  _448
REMARK  179  A    between atoms: _448  and  _449
REMARK  180  A    between atoms: _451  and  _453
REMARK  181  A    between atoms: _453  and  _454
REMARK  182  A    between atoms: _453  and  _456
REMARK  183  A    between atoms: _456  and  _457
REMARK  184  A    between atoms: _457  and  _458
REMARK  185  A    between atoms: _458  and  _459
REMARK  186  A    between atoms: _459  and  _460
REMARK  187  A    between atoms: _464  and  _466
REMARK  188  A    between atoms: _466  and  _467
REMARK  189  A    between atoms: _466  and  _469
REMARK  190  A    between atoms: _469  and  _470
REMARK  191  A    between atoms: _470  and  _471
REMARK  192  A    between atoms: _471  and  _472
REMARK  193  A    between atoms: _481  and  _483
REMARK  194  A    between atoms: _483  and  _484
REMARK  195  A    between atoms: _483  and  _486
REMARK  196  A    between atoms: _486  and  _487
REMARK  197  A    between atoms: _492  and  _494
REMARK  198  A    between atoms: _494  and  _495
REMARK  199  A    between atoms: _494  and  _497
REMARK  200  A    between atoms: _497  and  _498
REMARK  201  A    between atoms: _503  and  _504
REMARK  202  A    between atoms: _506  and  _508
REMARK  203  A    between atoms: _508  and  _509
REMARK  204  A    between atoms: _508  and  _511
REMARK  205  A    between atoms: _511  and  _512
REMARK  206  A    between atoms: _512  and  _513
REMARK  207  A    between atoms: _513  and  _514
REMARK  208  A    between atoms: _514  and  _515
REMARK  209  A    between atoms: _519  and  _521
REMARK  210  A    between atoms: _521  and  _522
REMARK  211  A    between atoms: _521  and  _524
REMARK  212  A    between atoms: _524  and  _525
REMARK  213  A    between atoms: _527  and  _529
REMARK  214  A    between atoms: _529  and  _530
REMARK  215  A    between atoms: _529  and  _532
REMARK  216  A    between atoms: _532  and  _533
REMARK  217  A    between atoms: _536  and  _538
REMARK  218  A    between atoms: _538  and  _539
REMARK  219  A    between atoms: _538  and  _541
REMARK  220  A    between atoms: _541  and  _542
REMARK  221  A    between atoms: _542  and  _543
REMARK  222  A    between atoms: _546  and  _548
REMARK  223  A    between atoms: _548  and  _549
REMARK  224  A    between atoms: _552  and  _554
REMARK  225  A    between atoms: _554  and  _555
REMARK  226  A    between atoms: _554  and  _557
REMARK  227  A    between atoms: _557  and  _558
REMARK  228  A    between atoms: _560  and  _562
REMARK  229  A    between atoms: _562  and  _563
REMARK  230  A    between atoms: _565  and  _567
REMARK  231  A    between atoms: _567  and  _568
REMARK  232  A    between atoms: _567  and  _570
REMARK  233  A    between atoms: _570  and  _571
REMARK  234  A    between atoms: _574  and  _576
REMARK  235  A    between atoms: _576  and  _577
REMARK  236  A    between atoms: _579  and  _581
REMARK  237  A    between atoms: _581  and  _582
REMARK  238  A    between atoms: _581  and  _584
REMARK  239  A    between atoms: _584  and  _585
REMARK  240  A    between atoms: _590  and  _592
REMARK  241  A    between atoms: _592  and  _593
REMARK  242  A    between atoms: _592  and  _595
REMARK  243  A    between atoms: _595  and  _596
REMARK  244  A    between atoms: _596  and  _597
REMARK  245  A    between atoms: _604  and  _605
REMARK  246  A    between atoms: _605  and  _621
REMARK  247  A    between atoms: _606  and  _608
REMARK  248  A    between atoms: _608  and  _609
REMARK  249  A    between atoms: _609  and  _610
REMARK  250  A    between atoms: _614  and  _616
REMARK  251  A    between atoms: _616  and  _617
REMARK  252  A    between atoms: _616  and  _624
REMARK  253  A    between atoms: _617  and  _618
REMARK  254  A    between atoms: _618  and  _619
REMARK  255  A    between atoms: _619  and  _620
REMARK  256  A    between atoms: _620  and  _621
REMARK  257  A    between atoms: _626  and  _628
REMARK  258  A    between atoms: _628  and  _629
REMARK  259  A    between atoms: _628  and  _631
REMARK  260  A    between atoms: _631  and  _632
REMARK  261  A    between atoms: _635  and  _637
REMARK  262  A    between atoms: _637  and  _638
REMARK  263  A    between atoms: _640  and  _642
REMARK  264  A    between atoms: _642  and  _643
REMARK  265  A    between atoms: _646  and  _648
REMARK  266  A    between atoms: _648  and  _649
REMARK  267  A    between atoms: _648  and  _651
REMARK  268  A    between atoms: _651  and  _652
REMARK  269  A    between atoms: _657  and  _658
REMARK                            x       y       z     vdW  Elec       q    Type
REMARK                         _______ _______ _______ _____ _____    ______ ____
ROOT
ATOM      1  CA  GLU A   1      40.756  20.870  43.425  0.00  0.00    +0.134 C 
ENDROOT
BRANCH   1   2
ATOM      2  N   GLU A   1      40.313  21.975  44.268  0.00  0.00    -0.239 NA
ATOM      3  H   GLU A   1      40.724  22.919  44.120  0.00  0.00    +0.142 HD
ENDBRANCH   1   2
BRANCH   1   4
ATOM      4  C   GLU A   1      41.427  19.769  44.241  0.00  0.00    +0.224 C 
ATOM      5  O   GLU A   1      41.111  18.587  44.070  0.00  0.00    -0.287 OA
ENDBRANCH   1   4
BRANCH   1   6
ATOM      6  CB  GLU A   1      41.674  21.383  42.317  0.00  0.00    +0.037 C 
BRANCH   6   7
ATOM      7  CG  GLU A   1      40.938  22.231  41.284  0.00  0.00    +0.116 C 
BRANCH   7   8
ATOM      8  CD  GLU A   1      41.829  22.728  40.162  0.00  0.00    +0.365 C 
ATOM      9  OE2 GLU A   1      43.069  22.601  40.264  0.00  0.00    -0.246 OA
ATOM     10  OE1 GLU A   1      41.277  23.248  39.168  0.00  0.00    -0.246 OA
ENDBRANCH   7   8
ENDBRANCH   6   7
ENDBRANCH   1   6
TORSDOF 5
REMARK  Name = ../refined-set-2016/2qrp/2qrp_pocket.pdb
REMARK  269 active torsions:
REMARK  status: ('A' for Active; 'I' for Inactive)
REMARK    1  A    between atoms: _1  and  _3
REMARK    2  A    between atoms: _3  and  _4
REMARK    3  A    between atoms: _3  and  _6
REMARK    4  A    between atoms: _6  and  _7
REMARK    5  A    between atoms: _12  and  _13
REMARK    6  A    between atoms: _15  and  _17
REMARK    7  A    between atoms: _17  and  _18
REMARK    8  A    between atoms: _17  and  _20
REMARK    9  A    between atoms: _20  and  _21
REMARK   10  A    between atoms: _24  and  _26
REMARK   11  A    between atoms: _26  and  _27
REMARK   12  A    between atoms: _26  and  _29
REMARK   13  A    between atoms: _29  and  _30
REMARK   14  A    between atoms: _30  and  _31
REMARK   15  A    between atoms: _34  and  _36
REMARK   16  A    between atoms: _36  and  _37
REMARK   17  A    between atoms: _39  and  _41
REMARK   18  A    between atoms: _41  and  _42
REMARK   19  A    between atoms: _41  and  _44
REMARK   20  A    between atoms: _44  and  _45
REMARK   21  A    between atoms: _50  and  _52
REMARK   22  A    between atoms: _52  and  _53
REMARK   23  A    between atoms: _55  and  _57
REMARK   24  A    between atoms: _57  and  _58
REMARK   25  A    between atoms: _60  and  _62
REMARK   26  A    between atoms: _62  and  _63
REMARK   27  A    between atoms: _62  and  _65
REMARK   28  A    between atoms: _65  and  _66
REMARK   29  A    between atoms: _69  and  _71
REMARK   30  A    between atoms: _71  and  _72
REMARK   31  A    between atoms: _74  and  _76
REMARK   32  A    between atoms: _76  and  _77
REMARK   33  A    between atoms: _76  and  _79
REMARK   34  A    between atoms: _79  and  _80
REMARK   35  A    between atoms: _80  and  _81
REMARK   36  A    between atoms: _81  and  _82
REMARK   37  A    between atoms: _91  and  _93
REMARK   38  A    between atoms: _93  and  _94
REMARK   39  A    between atoms: _93  and  _96
REMARK   40  A    between atoms: _96  and  _97
REMARK   41  A    between atoms: _100  and  _102
REMARK   42  A    between atoms: _102  and  _103
REMARK   43  A    between atoms: _106  and  _108
REMARK   44  A    between atoms: _108  and  _109
REMARK   45  A    between atoms: _108  and  _111
REMARK   46  A    between atoms: _111  and  _112
REMARK   47  A    between atoms: _118  and  _120
REMARK   48  A    between atoms: _120  and  _121
REMARK   49  A    between atoms: _120  and  _123
REMARK   50  A    between atoms: _123  and  _124
REMARK   51  A    between atoms: _127  and  _129
REMARK   52  A    between atoms: _129  and  _130
REMARK   53  A    between atoms: _129  and  _132
REMARK   54  A    between atoms: _132  and  _133
REMARK   55  A    between atoms: _138  and  _139
REMARK   56  A    between atoms: _142  and  _143
REMARK   57  A    between atoms: _148  and  _150
REMARK   58  A    between atoms: _150  and  _151
REMARK   59  A    between atoms: _150  and  _153
REMARK   60  A    between atoms: _153  and  _154
REMARK   61  A    between atoms: _159  and  _161
REMARK   62  A    between atoms: _161  and  _162
REMARK   63  A    between atoms: _161  and  _164
REMARK   64  A    between atoms: _164  and  _165
REMARK   65  A    between atoms: _168  and  _170
REMARK   66  A    between atoms: _170  and  _171
REMARK   67  A    between atoms: _170  and  _173
REMARK   68  A    between atoms: _173  and  _174
REMARK   69  A    between atoms: _179  and  _181
REMARK   70  A    between atoms: _181  and  _182
REMARK   71  A    between atoms: _181  and  _184
REMARK   72  A    between atoms: _184  and  _185
REMARK   73  A    between atoms: _191  and  _193
REMARK   74  A    between atoms: _193  and  _194
REMARK   75  A    between atoms: _193  and  _196
REMARK   76  A    between atoms: _196  and  _197
REMARK   77  A    between atoms: _203  and  _205
REMARK   78  A    between atoms: _205  and  _206
REMARK   79  A    between atoms: _205  and  _208
REMARK   80  A    between atoms: _208  and  _209
REMARK   81  A    between atoms: _209  and  _210
REMARK   82  A    between atoms: _213  and  _215
REMARK   83  A    between atoms: _215  and  _216
REMARK   84  A    between atoms: _215  and  _218
REMARK   85  A    between atoms: _218  and  _219
REMARK   86  A    between atoms: _219  and  _220
REMARK   87  A    between atoms: _220  and  _221
REMARK   88  A    between atoms: _230  and  _232
REMARK   89  A    between atoms: _232  and  _233
REMARK   90  A    between atoms: _232  and  _235
REMARK   91  A    between atoms: _235  and  _236
REMARK   92  A    between atoms: _236  and  _237
REMARK   93  A    between atoms: _240  and  _242
REMARK   94  A    between atoms: _242  and  _243
REMARK   95  A    between atoms: _242  and  _245
REMARK   96  A    between atoms: _245  and  _246
REMARK   97  A    between atoms: _251  and  _253
REMARK   98  A    between atoms: _253  and  _254
REMARK   99  A    between atoms: _253  and  _256
REMARK  100  A    between atoms: _256  and  _257
REMARK  101  A    between atoms: _260  and  _262
REMARK  102  A    between atoms: _262  and  _263
REMARK  103  A    between atoms: _262  and  _265
REMARK  104  A    between atoms: _265  and  _266
REMARK  105  A    between atoms: _269  and  _271
REMARK  106  A    between atoms: _271  and  _272
REMARK  107  A    between atoms: _271  and  _274
REMARK  108  A    between atoms: _274  and  _275
REMARK  109  A    between atoms: _280  and  _282
REMARK  110  A    between atoms: _282  and  _283
REMARK  111  A    between atoms: _282  and  _285
REMARK  112  A    between atoms: _285  and  _286
REMARK  113  A    between atoms: _289  and  _291
REMARK  114  A    between atoms: _291  and  _292
REMARK  115  A    between atoms: _291  and  _294
REMARK  116  A    between atoms: _294  and  _295
REMARK  117  A    between atoms: _300  and  _302
REMARK  118  A    between atoms: _302  and  _303
REMARK  119  A    between atoms: _302  and  _305
REMARK  120  A    between atoms: _305  and  _306
REMARK  121  A    between atoms: _311  and  _313
REMARK  122  A    between atoms: _313  and  _314
REMARK  123  A    between atoms: _313  and  _316
REMARK  124  A    between atoms: _316  and  _317
REMARK  125  A    between atoms: _320  and  _322
REMARK  126  A    between atoms: _322  and  _323
REMARK  127  A    between atoms: _322  and  _325
REMARK  128  A    between atoms: _328  and  _330
REMARK  129  A    between atoms: _330  and  _331
REMARK  130  A    between atoms: _330  and  _333
REMARK  131  A    between atoms: _333  and  _334
REMARK  132  A    between atoms: _337  and  _339
REMARK  133  A    between atoms: _339  and  _340
REMARK  134  A    between atoms: _339  and  _342
REMARK  135  A    between atoms: _342  and  _343
REMARK  136  A    between atoms: _343  and  _344
REMARK  137  A    between atoms: _347  and  _349
REMARK  138  A    between atoms: _349  and  _350
REMARK  139  A    between atoms: _353  and  _355
REMARK  140  A    between atoms: _355  and  _356
REMARK  141  A    between atoms: _355  and  _358
REMARK  142  A    between atoms: _358  and  _359
REMARK  143  A    between atoms: _362  and  _364
REMARK  144  A    between atoms: _364  and  _365
REMARK  145  A    between atoms: _364  and  _367
REMARK  146  A    between atoms: _367  and  _368
REMARK  147  A    between atoms: _368  and  _369
REMARK  148  A    between atoms: _372  and  _374
REMARK  149  A    between atoms: _374  and  _375
REMARK  150  A    between atoms: _374  and  _377
REMARK  151  A    between atoms: _377  and  _378
REMARK  152  A    between atoms: _383  and  _385
REMARK  153  A    between atoms: _385  and  _386
REMARK  154  A    between atoms: _388  and  _390
REMARK  155  A    between atoms: _390  and  _391
REMARK  156  A    between atoms: _390  and  _393
REMARK  157  A    between atoms: _396  and  _398
REMARK  158  A    between atoms: _398  and  _399
REMARK  159  A    between atoms: _402  and  _404
REMARK  160  A    between atoms: _404  and  _405
REMARK  161  A    between atoms: _404  and  _407
REMARK  162  A    between atoms: _407  and  _408
REMARK  163  A    between atoms: _413  and  _415
REMARK  164  A    between atoms: _415  and  _416
REMARK  165  A    between atoms: _415  and  _418
REMARK  166  A    between atoms: _418  and  _419
REMARK  167  A    between atoms: _419  and  _420
REMARK  168  A    between atoms: _420  and  _421
REMARK  169  A    between atoms: _421  and  _422
REMARK  170  A    between atoms: _426  and  _428
REMARK  171  A    between atoms: _428  and  _429
REMARK  172  A    between atoms: _428  and  _431
REMARK  173  A    between atoms: _431  and  _432
REMARK  174  A    between atoms: _435  and  _437
REMARK  175  A    between atoms: _437  and  _438
REMARK  176  A    between atoms: _437  and  _440
REMARK  177  A    between atoms: _440  and  _441
REMARK  178  A    between atoms: _446  and  _448
REMARK  179  A    between atoms: _448  and  _449
REMARK  180  A    between atoms: _451  and  _453
REMARK  181  A    between atoms: _453  and  _454
REMARK  182  A    between atoms: _453  and  _456
REMARK  183  A    between atoms: _456  and  _457
REMARK  184  A    between atoms: _457  and  _458
REMARK  185  A    between atoms: _458  and  _459
REMARK  186  A    between atoms: _459  and  _460
REMARK  187  A    between atoms: _464  and  _466
REMARK  188  A    between atoms: _466  and  _467
REMARK  189  A    between atoms: _466  and  _469
REMARK  190  A    between atoms: _469  and  _470
REMARK  191  A    between atoms: _470  and  _471
REMARK  192  A    between atoms: _471  and  _472
REMARK  193  A    between atoms: _481  and  _483
REMARK  194  A    between atoms: _483  and  _484
REMARK  195  A    between atoms: _483  and  _486
REMARK  196  A    between atoms: _486  and  _487
REMARK  197  A    between atoms: _492  and  _494
REMARK  198  A    between atoms: _494  and  _495
REMARK  199  A    between atoms: _494  and  _497
REMARK  200  A    between atoms: _497  and  _498
REMARK  201  A    between atoms: _503  and  _504
REMARK  202  A    between atoms: _506  and  _508
REMARK  203  A    between atoms: _508  and  _509
REMARK  204  A    between atoms: _508  and  _511
REMARK  205  A    between atoms: _511  and  _512
REMARK  206  A    between atoms: _512  and  _513
REMARK  207  A    between atoms: _513  and  _514
REMARK  208  A    between atoms: _514  and  _515
REMARK  209  A    between atoms: _519  and  _521
REMARK  210  A    between atoms: _521  and  _522
REMARK  211  A    between atoms: _521  and  _524
REMARK  212  A    between atoms: _524  and  _525
REMARK  213  A    between atoms: _527  and  _529
REMARK  214  A    between atoms: _529  and  _530
REMARK  215  A    between atoms: _529  and  _532
REMARK  216  A    between atoms: _532  and  _533
REMARK  217  A    between atoms: _536  and  _538
REMARK  218  A    between atoms: _538  and  _539
REMARK  219  A    between atoms: _538  and  _541
REMARK  220  A    between atoms: _541  and  _542
REMARK  221  A    between atoms: _542  and  _543
REMARK  222  A    between atoms: _546  and  _548
REMARK  223  A    between atoms: _548  and  _549
REMARK  224  A    between atoms: _552  and  _554
REMARK  225  A    between atoms: _554  and  _555
REMARK  226  A    between atoms: _554  and  _557
REMARK  227  A    between atoms: _557  and  _558
REMARK  228  A    between atoms: _560  and  _562
REMARK  229  A    between atoms: _562  and  _563
REMARK  230  A    between atoms: _565  and  _567
REMARK  231  A    between atoms: _567  and  _568
REMARK  232  A    between atoms: _567  and  _570
REMARK  233  A    between atoms: _570  and  _571
REMARK  234  A    between atoms: _574  and  _576
REMARK  235  A    between atoms: _576  and  _577
REMARK  236  A    between atoms: _579  and  _581
REMARK  237  A    between atoms: _581  and  _582
REMARK  238  A    between atoms: _581  and  _584
REMARK  239  A    between atoms: _584  and  _585
REMARK  240  A    between atoms: _590  and  _592
REMARK  241  A    between atoms: _592  and  _593
REMARK  242  A    between atoms: _592  and  _595
REMARK  243  A    between atoms: _595  and  _596
REMARK  244  A    between atoms: _596  and  _597
REMARK  245  A    between atoms: _604  and  _605
REMARK  246  A    between atoms: _605  and  _621
REMARK  247  A    between atoms: _606  and  _608
REMARK  248  A    between atoms: _608  and  _609
REMARK  249  A    between atoms: _609  and  _610
REMARK  250  A    between atoms: _614  and  _616
REMARK  251  A    between atoms: _616  and  _617
REMARK  252  A    between atoms: _616  and  _624
REMARK  253  A    between atoms: _617  and  _618
REMARK  254  A    between atoms: _618  and  _619
REMARK  255  A    between atoms: _619  and  _620
REMARK  256  A    between atoms: _620  and  _621
REMARK  257  A    between atoms: _626  and  _628
REMARK  258  A    between atoms: _628  and  _629
REMARK  259  A    between atoms: _628  and  _631
REMARK  260  A    between atoms: _631  and  _632
REMARK  261  A    between atoms: _635  and  _637
REMARK  262  A    between atoms: _637  and  _638
REMARK  263  A    between atoms: _640  and  _642
REMARK  264  A    between atoms: _642  and  _643
REMARK  265  A    between atoms: _646  and  _648
REMARK  266  A    between atoms: _648  and  _649
REMARK  267  A    between atoms: _648  and  _651
REMARK  268  A    between atoms: _651  and  _652
REMARK  269  A    between atoms: _657  and  _658
REMARK                            x       y       z     vdW  Elec       q    Type
REMARK                         _______ _______ _______ _____ _____    ______ ____
ROOT
ATOM      1  C   ASP A   2      40.717  17.774  33.440  0.00  0.00    +0.241 C 
ATOM      2  O   ASP A   2      40.799  16.767  34.148  0.00  0.00    -0.273 OA
ATOM      3  N   THR A   3      41.579  18.785  33.527  0.00  0.00    -0.295 N 
ATOM      4  H   THR A   3      41.432  19.630  32.939  0.00  0.00    +0.150 HD
ENDROOT
BRANCH   1   5
ATOM      5  CA  ASP A   2      39.608  17.889  32.383  0.00  0.00    +0.160 C 
BRANCH   5   8
ATOM      6  C   ASN A   1      37.809  16.852  33.721  0.00  0.00    +0.239 C 
ATOM      7  O   ASN A   1      37.787  17.754  34.568  0.00  0.00    -0.274 OA
ATOM      8  N   ASP A   2      38.549  16.896  32.615  0.00  0.00    -0.297 N 
ATOM      9  H   ASP A   2      38.368  16.189  31.874  0.00  0.00    +0.150 HD
BRANCH   6  10
ATOM     10  CA  ASN A   1      36.977  15.584  33.895  0.00  0.00    +0.154 C 
BRANCH  10  11
ATOM     11  N   ASN A   1      37.749  14.638  34.688  0.00  0.00    -0.238 NA
ATOM     12  H   ASN A   1      37.505  14.505  35.690  0.00  0.00    +0.142 HD
ENDBRANCH  10  11
BRANCH  10  13
ATOM     13  CB  ASN A   1      35.629  15.889  34.564  0.00  0.00    +0.111 C 
BRANCH  13  14
ATOM     14  CG  ASN A   1      34.579  16.384  33.580  0.00  0.00    +0.221 C 
ATOM     15  ND2 ASN A   1      33.581  17.103  34.090  0.00  0.00    -0.329 N 
ATOM     16 HD21 ASN A   1      33.557  17.309  35.109  0.00  0.00    +0.145 HD
ATOM     17 HD22 ASN A   1      32.826  17.458  33.469  0.00  0.00    +0.145 HD
ATOM     18  OD1 ASN A   1      34.653  16.113  32.381  0.00  0.00    -0.275 OA
ENDBRANCH  13  14
ENDBRANCH  10  13
ENDBRANCH   6  10
ENDBRANCH   5   8
BRANCH   5  19
ATOM     19  CB  ASP A   2      39.051  19.317  32.248  0.00  0.00    +0.143 C 
BRANCH  19  20
ATOM     20  CG  ASP A   2      39.780  20.116  31.180  0.00  0.00    +0.367 C 
ATOM     21  OD2 ASP A   2      40.861  20.656  31.478  0.00  0.00    -0.246 OA
ATOM     22  OD1 ASP A   2      39.293  20.165  30.030  0.00  0.00    -0.246 OA
ENDBRANCH  19  20
ENDBRANCH   5  19
ENDBRANCH   1   5
BRANCH   3  23
ATOM     23  CA  THR A   3      42.728  18.734  34.430  0.00  0.00    +0.176 C 
BRANCH  23  24
ATOM     24  C   THR A   3      42.366  19.187  35.840  0.00  0.00    +0.243 C 
ATOM     25  O   THR A   3      43.210  19.177  36.738  0.00  0.00    -0.273 OA
ATOM     26  N   HIS A   4      41.113  19.579  36.039  0.00  0.00    -0.298 N 
ATOM     27  H   HIS A   4      40.416  19.488  35.272  0.00  0.00    +0.150 HD
BRANCH  26  28
ATOM     28  CA  HIS A   4      40.705  20.138  37.330  0.00  0.00    +0.143 C 
BRANCH  28  29
ATOM     29  C   HIS A   4      40.963  19.191  38.517  0.00  0.00    +0.227 C 
ATOM     30  O   HIS A   4      41.449  19.632  39.555  0.00  0.00    -0.286 OA
ENDBRANCH  28  29
BRANCH  28  31
ATOM     31  CB  HIS A   4      39.269  20.681  37.277  0.00  0.00    +0.075 C 
BRANCH  31  32
ATOM     32  CG  HIS A   4      38.970  21.469  36.036  0.00  0.00    +0.082 A 
ATOM     33  ND1 HIS A   4      37.701  21.582  35.514  0.00  0.00    -0.227 NA
ATOM     34  CE1 HIS A   4      37.740  22.312  34.414  0.00  0.00    +0.199 A 
ATOM     35  NE2 HIS A   4      38.994  22.673  34.198  0.00  0.00    -0.221 NA
ATOM     36  CD2 HIS A   4      39.783  22.157  35.196  0.00  0.00    +0.115 A 
ENDBRANCH  31  32
ENDBRANCH  28  31
ENDBRANCH  26  28
ENDBRANCH  23  24
BRANCH  23  37
ATOM     37  CB  THR A   3      43.889  19.615  33.926  0.00  0.00    +0.137 C 
ATOM     38  CG2 THR A   3      44.350  19.174  32.544  0.00  0.00    +0.034 C 
BRANCH  37  39
ATOM     39  OG1 THR A   3      43.454  20.975  33.863  0.00  0.00    -0.382 OA
ATOM     40  HG1 THR A   3      43.177  21.274  34.765  0.00  0.00    +0.210 HD
ENDBRANCH  37  39
ENDBRANCH  23  37
ENDBRANCH   3  23
TORSDOF 16
REMARK  Name = ../refined-set-2016/2qrp/2qrp_pocket.pdb
REMARK  269 active torsions:
REMARK  status: ('A' for Active; 'I' for Inactive)
REMARK    1  A    between atoms: _1  and  _3
REMARK    2  A    between atoms: _3  and  _4
REMARK    3  A    between atoms: _3  and  _6
REMARK    4  A    between atoms: _6  and  _7
REMARK    5  A    between atoms: _12  and  _13
REMARK    6  A    between atoms: _15  and  _17
REMARK    7  A    between atoms: _17  and  _18
REMARK    8  A    between atoms: _17  and  _20
REMARK    9  A    between atoms: _20  and  _21
REMARK   10  A    between atoms: _24  and  _26
REMARK   11  A    between atoms: _26  and  _27
REMARK   12  A    between atoms: _26  and  _29
REMARK   13  A    between atoms: _29  and  _30
REMARK   14  A    between atoms: _30  and  _31
REMARK   15  A    between atoms: _34  and  _36
REMARK   16  A    between atoms: _36  and  _37
REMARK   17  A    between atoms: _39  and  _41
REMARK   18  A    between atoms: _41  and  _42
REMARK   19  A    between atoms: _41  and  _44
REMARK   20  A    between atoms: _44  and  _45
REMARK   21  A    between atoms: _50  and  _52
REMARK   22  A    between atoms: _52  and  _53
REMARK   23  A    between atoms: _55  and  _57
REMARK   24  A    between atoms: _57  and  _58
REMARK   25  A    between atoms: _60  and  _62
REMARK   26  A    between atoms: _62  and  _63
REMARK   27  A    between atoms: _62  and  _65
REMARK   28  A    between atoms: _65  and  _66
REMARK   29  A    between atoms: _69  and  _71
REMARK   30  A    between atoms: _71  and  _72
REMARK   31  A    between atoms: _74  and  _76
REMARK   32  A    between atoms: _76  and  _77
REMARK   33  A    between atoms: _76  and  _79
REMARK   34  A    between atoms: _79  and  _80
REMARK   35  A    between atoms: _80  and  _81
REMARK   36  A    between atoms: _81  and  _82
REMARK   37  A    between atoms: _91  and  _93
REMARK   38  A    between atoms: _93  and  _94
REMARK   39  A    between atoms: _93  and  _96
REMARK   40  A    between atoms: _96  and  _97
REMARK   41  A    between atoms: _100  and  _102
REMARK   42  A    between atoms: _102  and  _103
REMARK   43  A    between atoms: _106  and  _108
REMARK   44  A    between atoms: _108  and  _109
REMARK   45  A    between atoms: _108  and  _111
REMARK   46  A    between atoms: _111  and  _112
REMARK   47  A    between atoms: _118  and  _120
REMARK   48  A    between atoms: _120  and  _121
REMARK   49  A    between atoms: _120  and  _123
REMARK   50  A    between atoms: _123  and  _124
REMARK   51  A    between atoms: _127  and  _129
REMARK   52  A    between atoms: _129  and  _130
REMARK   53  A    between atoms: _129  and  _132
REMARK   54  A    between atoms: _132  and  _133
REMARK   55  A    between atoms: _138  and  _139
REMARK   56  A    between atoms: _142  and  _143
REMARK   57  A    between atoms: _148  and  _150
REMARK   58  A    between atoms: _150  and  _151
REMARK   59  A    between atoms: _150  and  _153
REMARK   60  A    between atoms: _153  and  _154
REMARK   61  A    between atoms: _159  and  _161
REMARK   62  A    between atoms: _161  and  _162
REMARK   63  A    between atoms: _161  and  _164
REMARK   64  A    between atoms: _164  and  _165
REMARK   65  A    between atoms: _168  and  _170
REMARK   66  A    between atoms: _170  and  _171
REMARK   67  A    between atoms: _170  and  _173
REMARK   68  A    between atoms: _173  and  _174
REMARK   69  A    between atoms: _179  and  _181
REMARK   70  A    between atoms: _181  and  _182
REMARK   71  A    between atoms: _181  and  _184
REMARK   72  A    between atoms: _184  and  _185
REMARK   73  A    between atoms: _191  and  _193
REMARK   74  A    between atoms: _193  and  _194
REMARK   75  A    between atoms: _193  and  _196
REMARK   76  A    between atoms: _196  and  _197
REMARK   77  A    between atoms: _203  and  _205
REMARK   78  A    between atoms: _205  and  _206
REMARK   79  A    between atoms: _205  and  _208
REMARK   80  A    between atoms: _208  and  _209
REMARK   81  A    between atoms: _209  and  _210
REMARK   82  A    between atoms: _213  and  _215
REMARK   83  A    between atoms: _215  and  _216
REMARK   84  A    between atoms: _215  and  _218
REMARK   85  A    between atoms: _218  and  _219
REMARK   86  A    between atoms: _219  and  _220
REMARK   87  A    between atoms: _220  and  _221
REMARK   88  A    between atoms: _230  and  _232
REMARK   89  A    between atoms: _232  and  _233
REMARK   90  A    between atoms: _232  and  _235
REMARK   91  A    between atoms: _235  and  _236
REMARK   92  A    between atoms: _236  and  _237
REMARK   93  A    between atoms: _240  and  _242
REMARK   94  A    between atoms: _242  and  _243
REMARK   95  A    between atoms: _242  and  _245
REMARK   96  A    between atoms: _245  and  _246
REMARK   97  A    between atoms: _251  and  _253
REMARK   98  A    between atoms: _253  and  _254
REMARK   99  A    between atoms: _253  and  _256
REMARK  100  A    between atoms: _256  and  _257
REMARK  101  A    between atoms: _260  and  _262
REMARK  102  A    between atoms: _262  and  _263
REMARK  103  A    between atoms: _262  and  _265
REMARK  104  A    between atoms: _265  and  _266
REMARK  105  A    between atoms: _269  and  _271
REMARK  106  A    between atoms: _271  and  _272
REMARK  107  A    between atoms: _271  and  _274
REMARK  108  A    between atoms: _274  and  _275
REMARK  109  A    between atoms: _280  and  _282
REMARK  110  A    between atoms: _282  and  _283
REMARK  111  A    between atoms: _282  and  _285
REMARK  112  A    between atoms: _285  and  _286
REMARK  113  A    between atoms: _289  and  _291
REMARK  114  A    between atoms: _291  and  _292
REMARK  115  A    between atoms: _291  and  _294
REMARK  116  A    between atoms: _294  and  _295
REMARK  117  A    between atoms: _300  and  _302
REMARK  118  A    between atoms: _302  and  _303
REMARK  119  A    between atoms: _302  and  _305
REMARK  120  A    between atoms: _305  and  _306
REMARK  121  A    between atoms: _311  and  _313
REMARK  122  A    between atoms: _313  and  _314
REMARK  123  A    between atoms: _313  and  _316
REMARK  124  A    between atoms: _316  and  _317
REMARK  125  A    between atoms: _320  and  _322
REMARK  126  A    between atoms: _322  and  _323
REMARK  127  A    between atoms: _322  and  _325
REMARK  128  A    between atoms: _328  and  _330
REMARK  129  A    between atoms: _330  and  _331
REMARK  130  A    between atoms: _330  and  _333
REMARK  131  A    between atoms: _333  and  _334
REMARK  132  A    between atoms: _337  and  _339
REMARK  133  A    between atoms: _339  and  _340
REMARK  134  A    between atoms: _339  and  _342
REMARK  135  A    between atoms: _342  and  _343
REMARK  136  A    between atoms: _343  and  _344
REMARK  137  A    between atoms: _347  and  _349
REMARK  138  A    between atoms: _349  and  _350
REMARK  139  A    between atoms: _353  and  _355
REMARK  140  A    between atoms: _355  and  _356
REMARK  141  A    between atoms: _355  and  _358
REMARK  142  A    between atoms: _358  and  _359
REMARK  143  A    between atoms: _362  and  _364
REMARK  144  A    between atoms: _364  and  _365
REMARK  145  A    between atoms: _364  and  _367
REMARK  146  A    between atoms: _367  and  _368
REMARK  147  A    between atoms: _368  and  _369
REMARK  148  A    between atoms: _372  and  _374
REMARK  149  A    between atoms: _374  and  _375
REMARK  150  A    between atoms: _374  and  _377
REMARK  151  A    between atoms: _377  and  _378
REMARK  152  A    between atoms: _383  and  _385
REMARK  153  A    between atoms: _385  and  _386
REMARK  154  A    between atoms: _388  and  _390
REMARK  155  A    between atoms: _390  and  _391
REMARK  156  A    between atoms: _390  and  _393
REMARK  157  A    between atoms: _396  and  _398
REMARK  158  A    between atoms: _398  and  _399
REMARK  159  A    between atoms: _402  and  _404
REMARK  160  A    between atoms: _404  and  _405
REMARK  161  A    between atoms: _404  and  _407
REMARK  162  A    between atoms: _407  and  _408
REMARK  163  A    between atoms: _413  and  _415
REMARK  164  A    between atoms: _415  and  _416
REMARK  165  A    between atoms: _415  and  _418
REMARK  166  A    between atoms: _418  and  _419
REMARK  167  A    between atoms: _419  and  _420
REMARK  168  A    between atoms: _420  and  _421
REMARK  169  A    between atoms: _421  and  _422
REMARK  170  A    between atoms: _426  and  _428
REMARK  171  A    between atoms: _428  and  _429
REMARK  172  A    between atoms: _428  and  _431
REMARK  173  A    between atoms: _431  and  _432
REMARK  174  A    between atoms: _435  and  _437
REMARK  175  A    between atoms: _437  and  _438
REMARK  176  A    between atoms: _437  and  _440
REMARK  177  A    between atoms: _440  and  _441
REMARK  178  A    between atoms: _446  and  _448
REMARK  179  A    between atoms: _448  and  _449
REMARK  180  A    between atoms: _451  and  _453
REMARK  181  A    between atoms: _453  and  _454
REMARK  182  A    between atoms: _453  and  _456
REMARK  183  A    between atoms: _456  and  _457
REMARK  184  A    between atoms: _457  and  _458
REMARK  185  A    between atoms: _458  and  _459
REMARK  186  A    between atoms: _459  and  _460
REMARK  187  A    between atoms: _464  and  _466
REMARK  188  A    between atoms: _466  and  _467
REMARK  189  A    between atoms: _466  and  _469
REMARK  190  A    between atoms: _469  and  _470
REMARK  191  A    between atoms: _470  and  _471
REMARK  192  A    between atoms: _471  and  _472
REMARK  193  A    between atoms: _481  and  _483
REMARK  194  A    between atoms: _483  and  _484
REMARK  195  A    between atoms: _483  and  _486
REMARK  196  A    between atoms: _486  and  _487
REMARK  197  A    between atoms: _492  and  _494
REMARK  198  A    between atoms: _494  and  _495
REMARK  199  A    between atoms: _494  and  _497
REMARK  200  A    between atoms: _497  and  _498
REMARK  201  A    between atoms: _503  and  _504
REMARK  202  A    between atoms: _506  and  _508
REMARK  203  A    between atoms: _508  and  _509
REMARK  204  A    between atoms: _508  and  _511
REMARK  205  A    between atoms: _511  and  _512
REMARK  206  A    between atoms: _512  and  _513
REMARK  207  A    between atoms: _513  and  _514
REMARK  208  A    between atoms: _514  and  _515
REMARK  209  A    between atoms: _519  and  _521
REMARK  210  A    between atoms: _521  and  _522
REMARK  211  A    between atoms: _521  and  _524
REMARK  212  A    between atoms: _524  and  _525
REMARK  213  A    between atoms: _527  and  _529
REMARK  214  A    between atoms: _529  and  _530
REMARK  215  A    between atoms: _529  and  _532
REMARK  216  A    between atoms: _532  and  _533
REMARK  217  A    between atoms: _536  and  _538
REMARK  218  A    between atoms: _538  and  _539
REMARK  219  A    between atoms: _538  and  _541
REMARK  220  A    between atoms: _541  and  _542
REMARK  221  A    between atoms: _542  and  _543
REMARK  222  A    between atoms: _546  and  _548
REMARK  223  A    between atoms: _548  and  _549
REMARK  224  A    between atoms: _552  and  _554
REMARK  225  A    between atoms: _554  and  _555
REMARK  226  A    between atoms: _554  and  _557
REMARK  227  A    between atoms: _557  and  _558
REMARK  228  A    between atoms: _560  and  _562
REMARK  229  A    between atoms: _562  and  _563
REMARK  230  A    between atoms: _565  and  _567
REMARK  231  A    between atoms: _567  and  _568
REMARK  232  A    between atoms: _567  and  _570
REMARK  233  A    between atoms: _570  and  _571
REMARK  234  A    between atoms: _574  and  _576
REMARK  235  A    between atoms: _576  and  _577
REMARK  236  A    between atoms: _579  and  _581
REMARK  237  A    between atoms: _581  and  _582
REMARK  238  A    between atoms: _581  and  _584
REMARK  239  A    between atoms: _584  and  _585
REMARK  240  A    between atoms: _590  and  _592
REMARK  241  A    between atoms: _592  and  _593
REMARK  242  A    between atoms: _592  and  _595
REMARK  243  A    between atoms: _595  and  _596
REMARK  244  A    between atoms: _596  and  _597
REMARK  245  A    between atoms: _604  and  _605
REMARK  246  A    between atoms: _605  and  _621
REMARK  247  A    between atoms: _606  and  _608
REMARK  248  A    between atoms: _608  and  _609
REMARK  249  A    between atoms: _609  and  _610
REMARK  250  A    between atoms: _614  and  _616
REMARK  251  A    between atoms: _616  and  _617
REMARK  252  A    between atoms: _616  and  _624
REMARK  253  A    between atoms: _617  and  _618
REMARK  254  A    between atoms: _618  and  _619
REMARK  255  A    between atoms: _619  and  _620
REMARK  256  A    between atoms: _620  and  _621
REMARK  257  A    between atoms: _626  and  _628
REMARK  258  A    between atoms: _628  and  _629
REMARK  259  A    between atoms: _628  and  _631
REMARK  260  A    between atoms: _631  and  _632
REMARK  261  A    between atoms: _635  and  _637
REMARK  262  A    between atoms: _637  and  _638
REMARK  263  A    between atoms: _640  and  _642
REMARK  264  A    between atoms: _642  and  _643
REMARK  265  A    between atoms: _646  and  _648
REMARK  266  A    between atoms: _648  and  _649
REMARK  267  A    between atoms: _648  and  _651
REMARK  268  A    between atoms: _651  and  _652
REMARK  269  A    between atoms: _657  and  _658
REMARK                            x       y       z     vdW  Elec       q    Type
REMARK                         _______ _______ _______ _____ _____    ______ ____
ROOT
ATOM      1  CA  HIS A   3      37.528  19.599  26.977  0.00  0.00    +0.155 C 
ENDROOT
BRANCH   1   3
ATOM      2  C   ASN A   2      39.174  17.770  26.941  0.00  0.00    +0.241 C 
ATOM      3  N   HIS A   3      38.756  18.935  27.439  0.00  0.00    -0.297 N 
ATOM      4  H   HIS A   3      39.321  19.392  28.183  0.00  0.00    +0.150 HD
ATOM      5  O   ASN A   2      38.604  17.182  26.016  0.00  0.00    -0.273 OA
BRANCH   2   6
ATOM      6  CA  ASN A   2      40.422  17.164  27.576  0.00  0.00    +0.158 C 
BRANCH   6   9
ATOM      7  C   THR A   1      39.701  15.349  29.062  0.00  0.00    +0.241 C 
ATOM      8  O   THR A   1      39.550  16.085  30.036  0.00  0.00    -0.274 OA
ATOM      9  N   ASN A   2      40.147  15.767  27.883  0.00  0.00    -0.297 N 
ATOM     10  H   ASN A   2      40.309  15.059  27.139  0.00  0.00    +0.150 HD
BRANCH   7  11
ATOM     11  CA  THR A   1      39.404  13.857  29.160  0.00  0.00    +0.172 C 
BRANCH  11  12
ATOM     12  N   THR A   1      40.232  13.278  30.208  0.00  0.00    -0.236 NA
ATOM     13  H   THR A   1      39.988  13.462  31.202  0.00  0.00    +0.142 HD
ENDBRANCH  11  12
BRANCH  11  14
ATOM     14  CB  THR A   1      37.896  13.649  29.421  0.00  0.00    +0.135 C 
ATOM     15  CG2 THR A   1      37.074  14.180  28.253  0.00  0.00    +0.034 C 
BRANCH  14  16
ATOM     16  OG1 THR A   1      37.618  12.255  29.591  0.00  0.00    -0.383 OA
ATOM     17  HG1 THR A   1      36.650  12.131  29.758  0.00  0.00    +0.210 HD
ENDBRANCH  14  16
ENDBRANCH  11  14
ENDBRANCH   7  11
ENDBRANCH   6   9
BRANCH   6  18
ATOM     18  CB  ASN A   2      41.624  17.251  26.623  0.00  0.00    +0.114 C 
BRANCH  18  19
ATOM     19  CG  ASN A   2      41.845  18.645  26.072  0.00  0.00    +0.222 C 
ATOM     20  ND2 ASN A   2      42.855  19.329  26.593  0.00  0.00    -0.329 N 
ATOM     21 HD21 ASN A   2      43.433  18.908  27.348  0.00  0.00    +0.145 HD
ATOM     22 HD22 ASN A   2      43.069  20.286  26.246  0.00  0.00    +0.145 HD
ATOM     23  OD1 ASN A   2      41.131  19.097  25.177  0.00  0.00    -0.275 OA
ENDBRANCH  18  19
ENDBRANCH   6  18
ENDBRANCH   2   6
ENDBRANCH   1   3
BRANCH   1  24
ATOM     24  C   HIS A   3      37.745  20.949  26.302  0.00  0.00    +0.241 C 
ATOM     25  N   THR A   4      38.980  21.431  26.249  0.00  0.00    -0.295 N 
ATOM     26  H   THR A   4      39.794  20.844  26.521  0.00  0.00    +0.150 HD
ATOM     27  O   HIS A   3      36.784  21.575  25.853  0.00  0.00    -0.273 OA
BRANCH  25  28
ATOM     28  CA  THR A   4      39.167  22.809  25.798  0.00  0.00    +0.176 C 
BRANCH  28  29
ATOM     29  C   THR A   4      40.390  23.047  24.925  0.00  0.00    +0.243 C 
ATOM     30  O   THR A   4      41.396  22.348  25.035  0.00  0.00    -0.273 OA
ATOM     31  N   VAL A   5      40.272  24.043  24.052  0.00  0.00    -0.297 N 
ATOM     32  H   VAL A   5      39.428  24.649  24.096  0.00  0.00    +0.150 HD
BRANCH  31  33
ATOM     33  CA  VAL A   5      41.279  24.317  23.038  0.00  0.00    +0.149 C 
BRANCH  33  34
ATOM     34  C   VAL A   5      42.001  25.635  23.323  0.00  0.00    +0.241 C 
ATOM     35  N   LEU A   6      41.291  26.585  23.930  0.00  0.00    -0.298 N 
ATOM     36  H   LEU A   6      40.330  26.364  24.261  0.00  0.00    +0.150 HD
ATOM     37  O   VAL A   5      43.181  25.776  23.002  0.00  0.00    -0.273 OA
BRANCH  35  38
ATOM     38  CA  LEU A   6      41.825  27.929  24.143  0.00  0.00    +0.137 C 
BRANCH  38  39
ATOM     39  C   LEU A   6      42.957  27.892  25.160  0.00  0.00    +0.227 C 
ATOM     40  O   LEU A   6      42.800  27.303  26.233  0.00  0.00    -0.286 OA
ENDBRANCH  38  39
BRANCH  38  41
ATOM     41  CB  LEU A   6      40.729  28.901  24.601  0.00  0.00    +0.028 C 
BRANCH  41  42
ATOM     42  CG  LEU A   6      39.504  29.121  23.705  0.00  0.00    +0.002 C 
ATOM     43  CD2 LEU A   6      38.559  30.124  24.351  0.00  0.00    +0.000 C 
ATOM     44  CD1 LEU A   6      39.887  29.573  22.296  0.00  0.00    +0.000 C 
ENDBRANCH  41  42
ENDBRANCH  38  41
ENDBRANCH  35  38
ENDBRANCH  33  34
BRANCH  33  45
ATOM     45  CB  VAL A   5      40.678  24.302  21.586  0.00  0.00    +0.027 C 
ATOM     46  CG2 VAL A   5      39.402  23.453  21.524  0.00  0.00    +0.002 C 
ATOM     47  CG1 VAL A   5      40.388  25.707  21.074  0.00  0.00    +0.002 C 
ENDBRANCH  33  45
ENDBRANCH  31  33
ENDBRANCH  28  29
BRANCH  28  48
ATOM     48  CB  THR A   4      39.069  23.827  26.971  0.00  0.00    +0.137 C 
ATOM     49  CG2 THR A   4      40.079  23.515  28.085  0.00  0.00    +0.034 C 
BRANCH  48  50
ATOM     50  OG1 THR A   4      39.259  25.157  26.466  0.00  0.00    -0.382 OA
ATOM     51  HG1 THR A   4      39.197  25.804  27.213  0.00  0.00    +0.210 HD
ENDBRANCH  48  50
ENDBRANCH  28  48
ENDBRANCH  25  28
ENDBRANCH   1  24
BRANCH   1  52
ATOM     52  CB  HIS A   3      36.566  19.841  28.145  0.00  0.00    +0.076 C 
BRANCH  52  53
ATOM     53  CG  HIS A   3      36.138  18.600  28.856  0.00  0.00    +0.082 A 
ATOM     54  CD2 HIS A   3      36.731  17.888  29.842  0.00  0.00    +0.115 A 
ATOM     55  NE2 HIS A   3      35.897  16.841  30.144  0.00  0.00    -0.221 NA
ATOM     56  CE1 HIS A   3      34.826  16.910  29.374  0.00  0.00    +0.199 A 
ATOM     57  ND1 HIS A   3      34.944  17.966  28.590  0.00  0.00    -0.227 NA
ENDBRANCH  52  53
ENDBRANCH   1  52
TORSDOF 23
REMARK  Name = ../refined-set-2016/2qrp/2qrp_pocket.pdb
REMARK  269 active torsions:
REMARK  status: ('A' for Active; 'I' for Inactive)
REMARK    1  A    between atoms: _1  and  _3
REMARK    2  A    between atoms: _3  and  _4
REMARK    3  A    between atoms: _3  and  _6
REMARK    4  A    between atoms: _6  and  _7
REMARK    5  A    between atoms: _12  and  _13
REMARK    6  A    between atoms: _15  and  _17
REMARK    7  A    between atoms: _17  and  _18
REMARK    8  A    between atoms: _17  and  _20
REMARK    9  A    between atoms: _20  and  _21
REMARK   10  A    between atoms: _24  and  _26
REMARK   11  A    between atoms: _26  and  _27
REMARK   12  A    between atoms: _26  and  _29
REMARK   13  A    between atoms: _29  and  _30
REMARK   14  A    between atoms: _30  and  _31
REMARK   15  A    between atoms: _34  and  _36
REMARK   16  A    between atoms: _36  and  _37
REMARK   17  A    between atoms: _39  and  _41
REMARK   18  A    between atoms: _41  and  _42
REMARK   19  A    between atoms: _41  and  _44
REMARK   20  A    between atoms: _44  and  _45
REMARK   21  A    between atoms: _50  and  _52
REMARK   22  A    between atoms: _52  and  _53
REMARK   23  A    between atoms: _55  and  _57
REMARK   24  A    between atoms: _57  and  _58
REMARK   25  A    between atoms: _60  and  _62
REMARK   26  A    between atoms: _62  and  _63
REMARK   27  A    between atoms: _62  and  _65
REMARK   28  A    between atoms: _65  and  _66
REMARK   29  A    between atoms: _69  and  _71
REMARK   30  A    between atoms: _71  and  _72
REMARK   31  A    between atoms: _74  and  _76
REMARK   32  A    between atoms: _76  and  _77
REMARK   33  A    between atoms: _76  and  _79
REMARK   34  A    between atoms: _79  and  _80
REMARK   35  A    between atoms: _80  and  _81
REMARK   36  A    between atoms: _81  and  _82
REMARK   37  A    between atoms: _91  and  _93
REMARK   38  A    between atoms: _93  and  _94
REMARK   39  A    between atoms: _93  and  _96
REMARK   40  A    between atoms: _96  and  _97
REMARK   41  A    between atoms: _100  and  _102
REMARK   42  A    between atoms: _102  and  _103
REMARK   43  A    between atoms: _106  and  _108
REMARK   44  A    between atoms: _108  and  _109
REMARK   45  A    between atoms: _108  and  _111
REMARK   46  A    between atoms: _111  and  _112
REMARK   47  A    between atoms: _118  and  _120
REMARK   48  A    between atoms: _120  and  _121
REMARK   49  A    between atoms: _120  and  _123
REMARK   50  A    between atoms: _123  and  _124
REMARK   51  A    between atoms: _127  and  _129
REMARK   52  A    between atoms: _129  and  _130
REMARK   53  A    between atoms: _129  and  _132
REMARK   54  A    between atoms: _132  and  _133
REMARK   55  A    between atoms: _138  and  _139
REMARK   56  A    between atoms: _142  and  _143
REMARK   57  A    between atoms: _148  and  _150
REMARK   58  A    between atoms: _150  and  _151
REMARK   59  A    between atoms: _150  and  _153
REMARK   60  A    between atoms: _153  and  _154
REMARK   61  A    between atoms: _159  and  _161
REMARK   62  A    between atoms: _161  and  _162
REMARK   63  A    between atoms: _161  and  _164
REMARK   64  A    between atoms: _164  and  _165
REMARK   65  A    between atoms: _168  and  _170
REMARK   66  A    between atoms: _170  and  _171
REMARK   67  A    between atoms: _170  and  _173
REMARK   68  A    between atoms: _173  and  _174
REMARK   69  A    between atoms: _179  and  _181
REMARK   70  A    between atoms: _181  and  _182
REMARK   71  A    between atoms: _181  and  _184
REMARK   72  A    between atoms: _184  and  _185
REMARK   73  A    between atoms: _191  and  _193
REMARK   74  A    between atoms: _193  and  _194
REMARK   75  A    between atoms: _193  and  _196
REMARK   76  A    between atoms: _196  and  _197
REMARK   77  A    between atoms: _203  and  _205
REMARK   78  A    between atoms: _205  and  _206
REMARK   79  A    between atoms: _205  and  _208
REMARK   80  A    between atoms: _208  and  _209
REMARK   81  A    between atoms: _209  and  _210
REMARK   82  A    between atoms: _213  and  _215
REMARK   83  A    between atoms: _215  and  _216
REMARK   84  A    between atoms: _215  and  _218
REMARK   85  A    between atoms: _218  and  _219
REMARK   86  A    between atoms: _219  and  _220
REMARK   87  A    between atoms: _220  and  _221
REMARK   88  A    between atoms: _230  and  _232
REMARK   89  A    between atoms: _232  and  _233
REMARK   90  A    between atoms: _232  and  _235
REMARK   91  A    between atoms: _235  and  _236
REMARK   92  A    between atoms: _236  and  _237
REMARK   93  A    between atoms: _240  and  _242
REMARK   94  A    between atoms: _242  and  _243
REMARK   95  A    between atoms: _242  and  _245
REMARK   96  A    between atoms: _245  and  _246
REMARK   97  A    between atoms: _251  and  _253
REMARK   98  A    between atoms: _253  and  _254
REMARK   99  A    between atoms: _253  and  _256
REMARK  100  A    between atoms: _256  and  _257
REMARK  101  A    between atoms: _260  and  _262
REMARK  102  A    between atoms: _262  and  _263
REMARK  103  A    between atoms: _262  and  _265
REMARK  104  A    between atoms: _265  and  _266
REMARK  105  A    between atoms: _269  and  _271
REMARK  106  A    between atoms: _271  and  _272
REMARK  107  A    between atoms: _271  and  _274
REMARK  108  A    between atoms: _274  and  _275
REMARK  109  A    between atoms: _280  and  _282
REMARK  110  A    between atoms: _282  and  _283
REMARK  111  A    between atoms: _282  and  _285
REMARK  112  A    between atoms: _285  and  _286
REMARK  113  A    between atoms: _289  and  _291
REMARK  114  A    between atoms: _291  and  _292
REMARK  115  A    between atoms: _291  and  _294
REMARK  116  A    between atoms: _294  and  _295
REMARK  117  A    between atoms: _300  and  _302
REMARK  118  A    between atoms: _302  and  _303
REMARK  119  A    between atoms: _302  and  _305
REMARK  120  A    between atoms: _305  and  _306
REMARK  121  A    between atoms: _311  and  _313
REMARK  122  A    between atoms: _313  and  _314
REMARK  123  A    between atoms: _313  and  _316
REMARK  124  A    between atoms: _316  and  _317
REMARK  125  A    between atoms: _320  and  _322
REMARK  126  A    between atoms: _322  and  _323
REMARK  127  A    between atoms: _322  and  _325
REMARK  128  A    between atoms: _328  and  _330
REMARK  129  A    between atoms: _330  and  _331
REMARK  130  A    between atoms: _330  and  _333
REMARK  131  A    between atoms: _333  and  _334
REMARK  132  A    between atoms: _337  and  _339
REMARK  133  A    between atoms: _339  and  _340
REMARK  134  A    between atoms: _339  and  _342
REMARK  135  A    between atoms: _342  and  _343
REMARK  136  A    between atoms: _343  and  _344
REMARK  137  A    between atoms: _347  and  _349
REMARK  138  A    between atoms: _349  and  _350
REMARK  139  A    between atoms: _353  and  _355
REMARK  140  A    between atoms: _355  and  _356
REMARK  141  A    between atoms: _355  and  _358
REMARK  142  A    between atoms: _358  and  _359
REMARK  143  A    between atoms: _362  and  _364
REMARK  144  A    between atoms: _364  and  _365
REMARK  145  A    between atoms: _364  and  _367
REMARK  146  A    between atoms: _367  and  _368
REMARK  147  A    between atoms: _368  and  _369
REMARK  148  A    between atoms: _372  and  _374
REMARK  149  A    between atoms: _374  and  _375
REMARK  150  A    between atoms: _374  and  _377
REMARK  151  A    between atoms: _377  and  _378
REMARK  152  A    between atoms: _383  and  _385
REMARK  153  A    between atoms: _385  and  _386
REMARK  154  A    between atoms: _388  and  _390
REMARK  155  A    between atoms: _390  and  _391
REMARK  156  A    between atoms: _390  and  _393
REMARK  157  A    between atoms: _396  and  _398
REMARK  158  A    between atoms: _398  and  _399
REMARK  159  A    between atoms: _402  and  _404
REMARK  160  A    between atoms: _404  and  _405
REMARK  161  A    between atoms: _404  and  _407
REMARK  162  A    between atoms: _407  and  _408
REMARK  163  A    between atoms: _413  and  _415
REMARK  164  A    between atoms: _415  and  _416
REMARK  165  A    between atoms: _415  and  _418
REMARK  166  A    between atoms: _418  and  _419
REMARK  167  A    between atoms: _419  and  _420
REMARK  168  A    between atoms: _420  and  _421
REMARK  169  A    between atoms: _421  and  _422
REMARK  170  A    between atoms: _426  and  _428
REMARK  171  A    between atoms: _428  and  _429
REMARK  172  A    between atoms: _428  and  _431
REMARK  173  A    between atoms: _431  and  _432
REMARK  174  A    between atoms: _435  and  _437
REMARK  175  A    between atoms: _437  and  _438
REMARK  176  A    between atoms: _437  and  _440
REMARK  177  A    between atoms: _440  and  _441
REMARK  178  A    between atoms: _446  and  _448
REMARK  179  A    between atoms: _448  and  _449
REMARK  180  A    between atoms: _451  and  _453
REMARK  181  A    between atoms: _453  and  _454
REMARK  182  A    between atoms: _453  and  _456
REMARK  183  A    between atoms: _456  and  _457
REMARK  184  A    between atoms: _457  and  _458
REMARK  185  A    between atoms: _458  and  _459
REMARK  186  A    between atoms: _459  and  _460
REMARK  187  A    between atoms: _464  and  _466
REMARK  188  A    between atoms: _466  and  _467
REMARK  189  A    between atoms: _466  and  _469
REMARK  190  A    between atoms: _469  and  _470
REMARK  191  A    between atoms: _470  and  _471
REMARK  192  A    between atoms: _471  and  _472
REMARK  193  A    between atoms: _481  and  _483
REMARK  194  A    between atoms: _483  and  _484
REMARK  195  A    between atoms: _483  and  _486
REMARK  196  A    between atoms: _486  and  _487
REMARK  197  A    between atoms: _492  and  _494
REMARK  198  A    between atoms: _494  and  _495
REMARK  199  A    between atoms: _494  and  _497
REMARK  200  A    between atoms: _497  and  _498
REMARK  201  A    between atoms: _503  and  _504
REMARK  202  A    between atoms: _506  and  _508
REMARK  203  A    between atoms: _508  and  _509
REMARK  204  A    between atoms: _508  and  _511
REMARK  205  A    between atoms: _511  and  _512
REMARK  206  A    between atoms: _512  and  _513
REMARK  207  A    between atoms: _513  and  _514
REMARK  208  A    between atoms: _514  and  _515
REMARK  209  A    between atoms: _519  and  _521
REMARK  210  A    between atoms: _521  and  _522
REMARK  211  A    between atoms: _521  and  _524
REMARK  212  A    between atoms: _524  and  _525
REMARK  213  A    between atoms: _527  and  _529
REMARK  214  A    between atoms: _529  and  _530
REMARK  215  A    between atoms: _529  and  _532
REMARK  216  A    between atoms: _532  and  _533
REMARK  217  A    between atoms: _536  and  _538
REMARK  218  A    between atoms: _538  and  _539
REMARK  219  A    between atoms: _538  and  _541
REMARK  220  A    between atoms: _541  and  _542
REMARK  221  A    between atoms: _542  and  _543
REMARK  222  A    between atoms: _546  and  _548
REMARK  223  A    between atoms: _548  and  _549
REMARK  224  A    between atoms: _552  and  _554
REMARK  225  A    between atoms: _554  and  _555
REMARK  226  A    between atoms: _554  and  _557
REMARK  227  A    between atoms: _557  and  _558
REMARK  228  A    between atoms: _560  and  _562
REMARK  229  A    between atoms: _562  and  _563
REMARK  230  A    between atoms: _565  and  _567
REMARK  231  A    between atoms: _567  and  _568
REMARK  232  A    between atoms: _567  and  _570
REMARK  233  A    between atoms: _570  and  _571
REMARK  234  A    between atoms: _574  and  _576
REMARK  235  A    between atoms: _576  and  _577
REMARK  236  A    between atoms: _579  and  _581
REMARK  237  A    between atoms: _581  and  _582
REMARK  238  A    between atoms: _581  and  _584
REMARK  239  A    between atoms: _584  and  _585
REMARK  240  A    between atoms: _590  and  _592
REMARK  241  A    between atoms: _592  and  _593
REMARK  242  A    between atoms: _592  and  _595
REMARK  243  A    between atoms: _595  and  _596
REMARK  244  A    between atoms: _596  and  _597
REMARK  245  A    between atoms: _604  and  _605
REMARK  246  A    between atoms: _605  and  _621
REMARK  247  A    between atoms: _606  and  _608
REMARK  248  A    between atoms: _608  and  _609
REMARK  249  A    between atoms: _609  and  _610
REMARK  250  A    between atoms: _614  and  _616
REMARK  251  A    between atoms: _616  and  _617
REMARK  252  A    between atoms: _616  and  _624
REMARK  253  A    between atoms: _617  and  _618
REMARK  254  A    between atoms: _618  and  _619
REMARK  255  A    between atoms: _619  and  _620
REMARK  256  A    between atoms: _620  and  _621
REMARK  257  A    between atoms: _626  and  _628
REMARK  258  A    between atoms: _628  and  _629
REMARK  259  A    between atoms: _628  and  _631
REMARK  260  A    between atoms: _631  and  _632
REMARK  261  A    between atoms: _635  and  _637
REMARK  262  A    between atoms: _637  and  _638
REMARK  263  A    between atoms: _640  and  _642
REMARK  264  A    between atoms: _642  and  _643
REMARK  265  A    between atoms: _646  and  _648
REMARK  266  A    between atoms: _648  and  _649
REMARK  267  A    between atoms: _648  and  _651
REMARK  268  A    between atoms: _651  and  _652
REMARK  269  A    between atoms: _657  and  _658
REMARK                            x       y       z     vdW  Elec       q    Type
REMARK                         _______ _______ _______ _____ _____    ______ ____
ROOT
ATOM      1  C   ALA A   2      42.390  26.561  30.156  0.00  0.00    +0.241 C 
ATOM      2  O   ALA A   2      41.889  25.788  30.974  0.00  0.00    -0.273 OA
ATOM      3  N   LEU A   3      43.656  26.470  29.755  0.00  0.00    -0.297 N 
ATOM      4  H   LEU A   3      44.011  27.148  29.051  0.00  0.00    +0.150 HD
ENDROOT
BRANCH   1   5
ATOM      5  CA  ALA A   2      41.558  27.695  29.547  0.00  0.00    +0.149 C 
ATOM      6  CB  ALA A   2      40.466  27.137  28.650  0.00  0.00    +0.031 C 
BRANCH   5   9
ATOM      7  C   GLU A   1      42.850  29.764  29.363  0.00  0.00    +0.238 C 
ATOM      8  O   GLU A   1      42.575  30.103  30.516  0.00  0.00    -0.274 OA
ATOM      9  N   ALA A   2      42.385  28.648  28.806  0.00  0.00    -0.297 N 
ATOM     10  H   ALA A   2      42.617  28.447  27.812  0.00  0.00    +0.150 HD
BRANCH   7  11
ATOM     11  CA  GLU A   1      43.770  30.632  28.490  0.00  0.00    +0.145 C 
BRANCH  11  12
ATOM     12  N   GLU A   1      44.111  30.013  27.203  0.00  0.00    -0.238 NA
ATOM     13  H   GLU A   1      43.674  30.382  26.334  0.00  0.00    +0.142 HD
ENDBRANCH  11  12
BRANCH  11  14
ATOM     14  CB  GLU A   1      43.172  32.034  28.292  0.00  0.00    +0.038 C 
BRANCH  14  15
ATOM     15  CG  GLU A   1      41.767  32.070  27.692  0.00  0.00    +0.116 C 
BRANCH  15  16
ATOM     16  CD  GLU A   1      41.750  32.335  26.191  0.00  0.00    +0.365 C 
ATOM     17  OE2 GLU A   1      40.766  32.940  25.724  0.00  0.00    -0.246 OA
ATOM     18  OE1 GLU A   1      42.701  31.934  25.478  0.00  0.00    -0.246 OA
ENDBRANCH  15  16
ENDBRANCH  14  15
ENDBRANCH  11  14
ENDBRANCH   7  11
ENDBRANCH   5   9
ENDBRANCH   1   5
BRANCH   3  19
ATOM     19  CA  LEU A   3      44.561  25.450  30.271  0.00  0.00    +0.149 C 
BRANCH  19  20
ATOM     20  C   LEU A   3      45.087  25.823  31.652  0.00  0.00    +0.241 C 
ATOM     21  N   GLU A   4      45.134  24.837  32.545  0.00  0.00    -0.298 N 
ATOM     22  H   GLU A   4      44.813  23.889  32.263  0.00  0.00    +0.150 HD
ATOM     23  O   LEU A   3      45.441  26.978  31.898  0.00  0.00    -0.273 OA
BRANCH  21  24
ATOM     24  CA  GLU A   4      45.620  25.041  33.905  0.00  0.00    +0.137 C 
BRANCH  24  25
ATOM     25  C   GLU A   4      47.134  24.962  33.976  0.00  0.00    +0.227 C 
ATOM     26  O   GLU A   4      47.731  23.936  33.636  0.00  0.00    -0.286 OA
ENDBRANCH  24  25
BRANCH  24  27
ATOM     27  CB  GLU A   4      45.021  24.010  34.857  0.00  0.00    +0.039 C 
BRANCH  27  28
ATOM     28  CG  GLU A   4      43.533  24.158  35.063  0.00  0.00    +0.116 C 
BRANCH  28  29
ATOM     29  CD  GLU A   4      43.065  23.403  36.276  0.00  0.00    +0.365 C 
ATOM     30  OE2 GLU A   4      42.606  24.065  37.225  0.00  0.00    -0.246 OA
ATOM     31  OE1 GLU A   4      43.159  22.155  36.276  0.00  0.00    -0.246 OA
ENDBRANCH  28  29
ENDBRANCH  27  28
ENDBRANCH  24  27
ENDBRANCH  21  24
ENDBRANCH  19  20
BRANCH  19  32
ATOM     32  CB  LEU A   3      45.734  25.220  29.309  0.00  0.00    +0.029 C 
BRANCH  32  33
ATOM     33  CG  LEU A   3      45.435  24.689  27.903  0.00  0.00    +0.002 C 
ATOM     34  CD2 LEU A   3      44.723  23.333  27.942  0.00  0.00    +0.000 C 
ATOM     35  CD1 LEU A   3      46.726  24.602  27.087  0.00  0.00    +0.000 C 
ENDBRANCH  32  33
ENDBRANCH  19  32
ENDBRANCH   3  19
TORSDOF 16
REMARK  Name = ../refined-set-2016/2qrp/2qrp_pocket.pdb
REMARK  269 active torsions:
REMARK  status: ('A' for Active; 'I' for Inactive)
REMARK    1  A    between atoms: _1  and  _3
REMARK    2  A    between atoms: _3  and  _4
REMARK    3  A    between atoms: _3  and  _6
REMARK    4  A    between atoms: _6  and  _7
REMARK    5  A    between atoms: _12  and  _13
REMARK    6  A    between atoms: _15  and  _17
REMARK    7  A    between atoms: _17  and  _18
REMARK    8  A    between atoms: _17  and  _20
REMARK    9  A    between atoms: _20  and  _21
REMARK   10  A    between atoms: _24  and  _26
REMARK   11  A    between atoms: _26  and  _27
REMARK   12  A    between atoms: _26  and  _29
REMARK   13  A    between atoms: _29  and  _30
REMARK   14  A    between atoms: _30  and  _31
REMARK   15  A    between atoms: _34  and  _36
REMARK   16  A    between atoms: _36  and  _37
REMARK   17  A    between atoms: _39  and  _41
REMARK   18  A    between atoms: _41  and  _42
REMARK   19  A    between atoms: _41  and  _44
REMARK   20  A    between atoms: _44  and  _45
REMARK   21  A    between atoms: _50  and  _52
REMARK   22  A    between atoms: _52  and  _53
REMARK   23  A    between atoms: _55  and  _57
REMARK   24  A    between atoms: _57  and  _58
REMARK   25  A    between atoms: _60  and  _62
REMARK   26  A    between atoms: _62  and  _63
REMARK   27  A    between atoms: _62  and  _65
REMARK   28  A    between atoms: _65  and  _66
REMARK   29  A    between atoms: _69  and  _71
REMARK   30  A    between atoms: _71  and  _72
REMARK   31  A    between atoms: _74  and  _76
REMARK   32  A    between atoms: _76  and  _77
REMARK   33  A    between atoms: _76  and  _79
REMARK   34  A    between atoms: _79  and  _80
REMARK   35  A    between atoms: _80  and  _81
REMARK   36  A    between atoms: _81  and  _82
REMARK   37  A    between atoms: _91  and  _93
REMARK   38  A    between atoms: _93  and  _94
REMARK   39  A    between atoms: _93  and  _96
REMARK   40  A    between atoms: _96  and  _97
REMARK   41  A    between atoms: _100  and  _102
REMARK   42  A    between atoms: _102  and  _103
REMARK   43  A    between atoms: _106  and  _108
REMARK   44  A    between atoms: _108  and  _109
REMARK   45  A    between atoms: _108  and  _111
REMARK   46  A    between atoms: _111  and  _112
REMARK   47  A    between atoms: _118  and  _120
REMARK   48  A    between atoms: _120  and  _121
REMARK   49  A    between atoms: _120  and  _123
REMARK   50  A    between atoms: _123  and  _124
REMARK   51  A    between atoms: _127  and  _129
REMARK   52  A    between atoms: _129  and  _130
REMARK   53  A    between atoms: _129  and  _132
REMARK   54  A    between atoms: _132  and  _133
REMARK   55  A    between atoms: _138  and  _139
REMARK   56  A    between atoms: _142  and  _143
REMARK   57  A    between atoms: _148  and  _150
REMARK   58  A    between atoms: _150  and  _151
REMARK   59  A    between atoms: _150  and  _153
REMARK   60  A    between atoms: _153  and  _154
REMARK   61  A    between atoms: _159  and  _161
REMARK   62  A    between atoms: _161  and  _162
REMARK   63  A    between atoms: _161  and  _164
REMARK   64  A    between atoms: _164  and  _165
REMARK   65  A    between atoms: _168  and  _170
REMARK   66  A    between atoms: _170  and  _171
REMARK   67  A    between atoms: _170  and  _173
REMARK   68  A    between atoms: _173  and  _174
REMARK   69  A    between atoms: _179  and  _181
REMARK   70  A    between atoms: _181  and  _182
REMARK   71  A    between atoms: _181  and  _184
REMARK   72  A    between atoms: _184  and  _185
REMARK   73  A    between atoms: _191  and  _193
REMARK   74  A    between atoms: _193  and  _194
REMARK   75  A    between atoms: _193  and  _196
REMARK   76  A    between atoms: _196  and  _197
REMARK   77  A    between atoms: _203  and  _205
REMARK   78  A    between atoms: _205  and  _206
REMARK   79  A    between atoms: _205  and  _208
REMARK   80  A    between atoms: _208  and  _209
REMARK   81  A    between atoms: _209  and  _210
REMARK   82  A    between atoms: _213  and  _215
REMARK   83  A    between atoms: _215  and  _216
REMARK   84  A    between atoms: _215  and  _218
REMARK   85  A    between atoms: _218  and  _219
REMARK   86  A    between atoms: _219  and  _220
REMARK   87  A    between atoms: _220  and  _221
REMARK   88  A    between atoms: _230  and  _232
REMARK   89  A    between atoms: _232  and  _233
REMARK   90  A    between atoms: _232  and  _235
REMARK   91  A    between atoms: _235  and  _236
REMARK   92  A    between atoms: _236  and  _237
REMARK   93  A    between atoms: _240  and  _242
REMARK   94  A    between atoms: _242  and  _243
REMARK   95  A    between atoms: _242  and  _245
REMARK   96  A    between atoms: _245  and  _246
REMARK   97  A    between atoms: _251  and  _253
REMARK   98  A    between atoms: _253  and  _254
REMARK   99  A    between atoms: _253  and  _256
REMARK  100  A    between atoms: _256  and  _257
REMARK  101  A    between atoms: _260  and  _262
REMARK  102  A    between atoms: _262  and  _263
REMARK  103  A    between atoms: _262  and  _265
REMARK  104  A    between atoms: _265  and  _266
REMARK  105  A    between atoms: _269  and  _271
REMARK  106  A    between atoms: _271  and  _272
REMARK  107  A    between atoms: _271  and  _274
REMARK  108  A    between atoms: _274  and  _275
REMARK  109  A    between atoms: _280  and  _282
REMARK  110  A    between atoms: _282  and  _283
REMARK  111  A    between atoms: _282  and  _285
REMARK  112  A    between atoms: _285  and  _286
REMARK  113  A    between atoms: _289  and  _291
REMARK  114  A    between atoms: _291  and  _292
REMARK  115  A    between atoms: _291  and  _294
REMARK  116  A    between atoms: _294  and  _295
REMARK  117  A    between atoms: _300  and  _302
REMARK  118  A    between atoms: _302  and  _303
REMARK  119  A    between atoms: _302  and  _305
REMARK  120  A    between atoms: _305  and  _306
REMARK  121  A    between atoms: _311  and  _313
REMARK  122  A    between atoms: _313  and  _314
REMARK  123  A    between atoms: _313  and  _316
REMARK  124  A    between atoms: _316  and  _317
REMARK  125  A    between atoms: _320  and  _322
REMARK  126  A    between atoms: _322  and  _323
REMARK  127  A    between atoms: _322  and  _325
REMARK  128  A    between atoms: _328  and  _330
REMARK  129  A    between atoms: _330  and  _331
REMARK  130  A    between atoms: _330  and  _333
REMARK  131  A    between atoms: _333  and  _334
REMARK  132  A    between atoms: _337  and  _339
REMARK  133  A    between atoms: _339  and  _340
REMARK  134  A    between atoms: _339  and  _342
REMARK  135  A    between atoms: _342  and  _343
REMARK  136  A    between atoms: _343  and  _344
REMARK  137  A    between atoms: _347  and  _349
REMARK  138  A    between atoms: _349  and  _350
REMARK  139  A    between atoms: _353  and  _355
REMARK  140  A    between atoms: _355  and  _356
REMARK  141  A    between atoms: _355  and  _358
REMARK  142  A    between atoms: _358  and  _359
REMARK  143  A    between atoms: _362  and  _364
REMARK  144  A    between atoms: _364  and  _365
REMARK  145  A    between atoms: _364  and  _367
REMARK  146  A    between atoms: _367  and  _368
REMARK  147  A    between atoms: _368  and  _369
REMARK  148  A    between atoms: _372  and  _374
REMARK  149  A    between atoms: _374  and  _375
REMARK  150  A    between atoms: _374  and  _377
REMARK  151  A    between atoms: _377  and  _378
REMARK  152  A    between atoms: _383  and  _385
REMARK  153  A    between atoms: _385  and  _386
REMARK  154  A    between atoms: _388  and  _390
REMARK  155  A    between atoms: _390  and  _391
REMARK  156  A    between atoms: _390  and  _393
REMARK  157  A    between atoms: _396  and  _398
REMARK  158  A    between atoms: _398  and  _399
REMARK  159  A    between atoms: _402  and  _404
REMARK  160  A    between atoms: _404  and  _405
REMARK  161  A    between atoms: _404  and  _407
REMARK  162  A    between atoms: _407  and  _408
REMARK  163  A    between atoms: _413  and  _415
REMARK  164  A    between atoms: _415  and  _416
REMARK  165  A    between atoms: _415  and  _418
REMARK  166  A    between atoms: _418  and  _419
REMARK  167  A    between atoms: _419  and  _420
REMARK  168  A    between atoms: _420  and  _421
REMARK  169  A    between atoms: _421  and  _422
REMARK  170  A    between atoms: _426  and  _428
REMARK  171  A    between atoms: _428  and  _429
REMARK  172  A    between atoms: _428  and  _431
REMARK  173  A    between atoms: _431  and  _432
REMARK  174  A    between atoms: _435  and  _437
REMARK  175  A    between atoms: _437  and  _438
REMARK  176  A    between atoms: _437  and  _440
REMARK  177  A    between atoms: _440  and  _441
REMARK  178  A    between atoms: _446  and  _448
REMARK  179  A    between atoms: _448  and  _449
REMARK  180  A    between atoms: _451  and  _453
REMARK  181  A    between atoms: _453  and  _454
REMARK  182  A    between atoms: _453  and  _456
REMARK  183  A    between atoms: _456  and  _457
REMARK  184  A    between atoms: _457  and  _458
REMARK  185  A    between atoms: _458  and  _459
REMARK  186  A    between atoms: _459  and  _460
REMARK  187  A    between atoms: _464  and  _466
REMARK  188  A    between atoms: _466  and  _467
REMARK  189  A    between atoms: _466  and  _469
REMARK  190  A    between atoms: _469  and  _470
REMARK  191  A    between atoms: _470  and  _471
REMARK  192  A    between atoms: _471  and  _472
REMARK  193  A    between atoms: _481  and  _483
REMARK  194  A    between atoms: _483  and  _484
REMARK  195  A    between atoms: _483  and  _486
REMARK  196  A    between atoms: _486  and  _487
REMARK  197  A    between atoms: _492  and  _494
REMARK  198  A    between atoms: _494  and  _495
REMARK  199  A    between atoms: _494  and  _497
REMARK  200  A    between atoms: _497  and  _498
REMARK  201  A    between atoms: _503  and  _504
REMARK  202  A    between atoms: _506  and  _508
REMARK  203  A    between atoms: _508  and  _509
REMARK  204  A    between atoms: _508  and  _511
REMARK  205  A    between atoms: _511  and  _512
REMARK  206  A    between atoms: _512  and  _513
REMARK  207  A    between atoms: _513  and  _514
REMARK  208  A    between atoms: _514  and  _515
REMARK  209  A    between atoms: _519  and  _521
REMARK  210  A    between atoms: _521  and  _522
REMARK  211  A    between atoms: _521  and  _524
REMARK  212  A    between atoms: _524  and  _525
REMARK  213  A    between atoms: _527  and  _529
REMARK  214  A    between atoms: _529  and  _530
REMARK  215  A    between atoms: _529  and  _532
REMARK  216  A    between atoms: _532  and  _533
REMARK  217  A    between atoms: _536  and  _538
REMARK  218  A    between atoms: _538  and  _539
REMARK  219  A    between atoms: _538  and  _541
REMARK  220  A    between atoms: _541  and  _542
REMARK  221  A    between atoms: _542  and  _543
REMARK  222  A    between atoms: _546  and  _548
REMARK  223  A    between atoms: _548  and  _549
REMARK  224  A    between atoms: _552  and  _554
REMARK  225  A    between atoms: _554  and  _555
REMARK  226  A    between atoms: _554  and  _557
REMARK  227  A    between atoms: _557  and  _558
REMARK  228  A    between atoms: _560  and  _562
REMARK  229  A    between atoms: _562  and  _563
REMARK  230  A    between atoms: _565  and  _567
REMARK  231  A    between atoms: _567  and  _568
REMARK  232  A    between atoms: _567  and  _570
REMARK  233  A    between atoms: _570  and  _571
REMARK  234  A    between atoms: _574  and  _576
REMARK  235  A    between atoms: _576  and  _577
REMARK  236  A    between atoms: _579  and  _581
REMARK  237  A    between atoms: _581  and  _582
REMARK  238  A    between atoms: _581  and  _584
REMARK  239  A    between atoms: _584  and  _585
REMARK  240  A    between atoms: _590  and  _592
REMARK  241  A    between atoms: _592  and  _593
REMARK  242  A    between atoms: _592  and  _595
REMARK  243  A    between atoms: _595  and  _596
REMARK  244  A    between atoms: _596  and  _597
REMARK  245  A    between atoms: _604  and  _605
REMARK  246  A    between atoms: _605  and  _621
REMARK  247  A    between atoms: _606  and  _608
REMARK  248  A    between atoms: _608  and  _609
REMARK  249  A    between atoms: _609  and  _610
REMARK  250  A    between atoms: _614  and  _616
REMARK  251  A    between atoms: _616  and  _617
REMARK  252  A    between atoms: _616  and  _624
REMARK  253  A    between atoms: _617  and  _618
REMARK  254  A    between atoms: _618  and  _619
REMARK  255  A    between atoms: _619  and  _620
REMARK  256  A    between atoms: _620  and  _621
REMARK  257  A    between atoms: _626  and  _628
REMARK  258  A    between atoms: _628  and  _629
REMARK  259  A    between atoms: _628  and  _631
REMARK  260  A    between atoms: _631  and  _632
REMARK  261  A    between atoms: _635  and  _637
REMARK  262  A    between atoms: _637  and  _638
REMARK  263  A    between atoms: _640  and  _642
REMARK  264  A    between atoms: _642  and  _643
REMARK  265  A    between atoms: _646  and  _648
REMARK  266  A    between atoms: _648  and  _649
REMARK  267  A    between atoms: _648  and  _651
REMARK  268  A    between atoms: _651  and  _652
REMARK  269  A    between atoms: _657  and  _658
REMARK                            x       y       z     vdW  Elec       q    Type
REMARK                         _______ _______ _______ _____ _____    ______ ____
ROOT
ATOM      1  C   GLY A   2      37.457  14.421  23.166  0.00  0.00    +0.243 C 
ATOM      2  O   GLY A   2      37.070  13.259  23.311  0.00  0.00    -0.273 OA
ATOM      3  N   VAL A   3      36.626  15.434  22.942  0.00  0.00    -0.297 N 
ATOM      4  H   VAL A   3      37.007  16.337  22.595  0.00  0.00    +0.150 HD
ENDROOT
BRANCH   1   5
ATOM      5  CA  GLY A   2      38.937  14.749  23.221  0.00  0.00    +0.176 C 
BRANCH   5   8
ATOM      6  C   ASN A   1      39.988  13.135  24.729  0.00  0.00    +0.239 C 
ATOM      7  O   ASN A   1      39.940  13.877  25.711  0.00  0.00    -0.274 OA
ATOM      8  N   GLY A   2      39.674  13.522  23.495  0.00  0.00    -0.296 N 
ATOM      9  H   GLY A   2      39.966  12.925  22.695  0.00  0.00    +0.150 HD
BRANCH   6  10
ATOM     10  CA  ASN A   1      40.459  11.694  24.861  0.00  0.00    +0.154 C 
BRANCH  10  11
ATOM     11  N   ASN A   1      41.472  11.489  25.894  0.00  0.00    -0.238 NA
ATOM     12  H   ASN A   1      41.313  11.855  26.854  0.00  0.00    +0.142 HD
ENDBRANCH  10  11
BRANCH  10  13
ATOM     13  CB  ASN A   1      39.258  10.739  25.044  0.00  0.00    +0.111 C 
BRANCH  13  14
ATOM     14  CG  ASN A   1      38.326  11.159  26.180  0.00  0.00    +0.221 C 
ATOM     15  OD1 ASN A   1      38.613  10.932  27.354  0.00  0.00    -0.275 OA
ATOM     16  ND2 ASN A   1      37.192  11.750  25.825  0.00  0.00    -0.329 N 
ATOM     17 HD21 ASN A   1      36.507  12.040  26.552  0.00  0.00    +0.145 HD
ATOM     18 HD22 ASN A   1      36.988  11.923  24.820  0.00  0.00    +0.145 HD
ENDBRANCH  13  14
ENDBRANCH  10  13
ENDBRANCH   6  10
ENDBRANCH   5   8
ENDBRANCH   1   5
BRANCH   3  19
ATOM     19  CA  VAL A   3      35.181  15.305  23.174  0.00  0.00    +0.149 C 
BRANCH  19  20
ATOM     20  C   VAL A   3      34.309  15.395  21.910  0.00  0.00    +0.241 C 
ATOM     21  O   VAL A   3      33.082  15.388  21.991  0.00  0.00    -0.273 OA
ATOM     22  N   ALA A   4      34.965  15.483  20.755  0.00  0.00    -0.298 N 
ATOM     23  H   ALA A   4      35.990  15.658  20.789  0.00  0.00    +0.150 HD
BRANCH  22  24
ATOM     24  CA  ALA A   4      34.337  15.349  19.441  0.00  0.00    +0.137 C 
ATOM     25  CB  ALA A   4      33.624  16.637  19.027  0.00  0.00    +0.030 C 
BRANCH  24  26
ATOM     26  C   ALA A   4      35.443  14.999  18.455  0.00  0.00    +0.227 C 
ATOM     27  O   ALA A   4      36.622  15.241  18.733  0.00  0.00    -0.286 OA
ENDBRANCH  24  26
ENDBRANCH  22  24
ENDBRANCH  19  20
BRANCH  19  28
ATOM     28  CB  VAL A   3      34.699  16.296  24.269  0.00  0.00    +0.027 C 
ATOM     29  CG2 VAL A   3      35.270  15.901  25.629  0.00  0.00    +0.002 C 
ATOM     30  CG1 VAL A   3      35.095  17.733  23.925  0.00  0.00    +0.002 C 
ENDBRANCH  19  28
ENDBRANCH   3  19
TORSDOF 11
REMARK  Name = ../refined-set-2016/2qrp/2qrp_pocket.pdb
REMARK  269 active torsions:
REMARK  status: ('A' for Active; 'I' for Inactive)
REMARK    1  A    between atoms: _1  and  _3
REMARK    2  A    between atoms: _3  and  _4
REMARK    3  A    between atoms: _3  and  _6
REMARK    4  A    between atoms: _6  and  _7
REMARK    5  A    between atoms: _12  and  _13
REMARK    6  A    between atoms: _15  and  _17
REMARK    7  A    between atoms: _17  and  _18
REMARK    8  A    between atoms: _17  and  _20
REMARK    9  A    between atoms: _20  and  _21
REMARK   10  A    between atoms: _24  and  _26
REMARK   11  A    between atoms: _26  and  _27
REMARK   12  A    between atoms: _26  and  _29
REMARK   13  A    between atoms: _29  and  _30
REMARK   14  A    between atoms: _30  and  _31
REMARK   15  A    between atoms: _34  and  _36
REMARK   16  A    between atoms: _36  and  _37
REMARK   17  A    between atoms: _39  and  _41
REMARK   18  A    between atoms: _41  and  _42
REMARK   19  A    between atoms: _41  and  _44
REMARK   20  A    between atoms: _44  and  _45
REMARK   21  A    between atoms: _50  and  _52
REMARK   22  A    between atoms: _52  and  _53
REMARK   23  A    between atoms: _55  and  _57
REMARK   24  A    between atoms: _57  and  _58
REMARK   25  A    between atoms: _60  and  _62
REMARK   26  A    between atoms: _62  and  _63
REMARK   27  A    between atoms: _62  and  _65
REMARK   28  A    between atoms: _65  and  _66
REMARK   29  A    between atoms: _69  and  _71
REMARK   30  A    between atoms: _71  and  _72
REMARK   31  A    between atoms: _74  and  _76
REMARK   32  A    between atoms: _76  and  _77
REMARK   33  A    between atoms: _76  and  _79
REMARK   34  A    between atoms: _79  and  _80
REMARK   35  A    between atoms: _80  and  _81
REMARK   36  A    between atoms: _81  and  _82
REMARK   37  A    between atoms: _91  and  _93
REMARK   38  A    between atoms: _93  and  _94
REMARK   39  A    between atoms: _93  and  _96
REMARK   40  A    between atoms: _96  and  _97
REMARK   41  A    between atoms: _100  and  _102
REMARK   42  A    between atoms: _102  and  _103
REMARK   43  A    between atoms: _106  and  _108
REMARK   44  A    between atoms: _108  and  _109
REMARK   45  A    between atoms: _108  and  _111
REMARK   46  A    between atoms: _111  and  _112
REMARK   47  A    between atoms: _118  and  _120
REMARK   48  A    between atoms: _120  and  _121
REMARK   49  A    between atoms: _120  and  _123
REMARK   50  A    between atoms: _123  and  _124
REMARK   51  A    between atoms: _127  and  _129
REMARK   52  A    between atoms: _129  and  _130
REMARK   53  A    between atoms: _129  and  _132
REMARK   54  A    between atoms: _132  and  _133
REMARK   55  A    between atoms: _138  and  _139
REMARK   56  A    between atoms: _142  and  _143
REMARK   57  A    between atoms: _148  and  _150
REMARK   58  A    between atoms: _150  and  _151
REMARK   59  A    between atoms: _150  and  _153
REMARK   60  A    between atoms: _153  and  _154
REMARK   61  A    between atoms: _159  and  _161
REMARK   62  A    between atoms: _161  and  _162
REMARK   63  A    between atoms: _161  and  _164
REMARK   64  A    between atoms: _164  and  _165
REMARK   65  A    between atoms: _168  and  _170
REMARK   66  A    between atoms: _170  and  _171
REMARK   67  A    between atoms: _170  and  _173
REMARK   68  A    between atoms: _173  and  _174
REMARK   69  A    between atoms: _179  and  _181
REMARK   70  A    between atoms: _181  and  _182
REMARK   71  A    between atoms: _181  and  _184
REMARK   72  A    between atoms: _184  and  _185
REMARK   73  A    between atoms: _191  and  _193
REMARK   74  A    between atoms: _193  and  _194
REMARK   75  A    between atoms: _193  and  _196
REMARK   76  A    between atoms: _196  and  _197
REMARK   77  A    between atoms: _203  and  _205
REMARK   78  A    between atoms: _205  and  _206
REMARK   79  A    between atoms: _205  and  _208
REMARK   80  A    between atoms: _208  and  _209
REMARK   81  A    between atoms: _209  and  _210
REMARK   82  A    between atoms: _213  and  _215
REMARK   83  A    between atoms: _215  and  _216
REMARK   84  A    between atoms: _215  and  _218
REMARK   85  A    between atoms: _218  and  _219
REMARK   86  A    between atoms: _219  and  _220
REMARK   87  A    between atoms: _220  and  _221
REMARK   88  A    between atoms: _230  and  _232
REMARK   89  A    between atoms: _232  and  _233
REMARK   90  A    between atoms: _232  and  _235
REMARK   91  A    between atoms: _235  and  _236
REMARK   92  A    between atoms: _236  and  _237
REMARK   93  A    between atoms: _240  and  _242
REMARK   94  A    between atoms: _242  and  _243
REMARK   95  A    between atoms: _242  and  _245
REMARK   96  A    between atoms: _245  and  _246
REMARK   97  A    between atoms: _251  and  _253
REMARK   98  A    between atoms: _253  and  _254
REMARK   99  A    between atoms: _253  and  _256
REMARK  100  A    between atoms: _256  and  _257
REMARK  101  A    between atoms: _260  and  _262
REMARK  102  A    between atoms: _262  and  _263
REMARK  103  A    between atoms: _262  and  _265
REMARK  104  A    between atoms: _265  and  _266
REMARK  105  A    between atoms: _269  and  _271
REMARK  106  A    between atoms: _271  and  _272
REMARK  107  A    between atoms: _271  and  _274
REMARK  108  A    between atoms: _274  and  _275
REMARK  109  A    between atoms: _280  and  _282
REMARK  110  A    between atoms: _282  and  _283
REMARK  111  A    between atoms: _282  and  _285
REMARK  112  A    between atoms: _285  and  _286
REMARK  113  A    between atoms: _289  and  _291
REMARK  114  A    between atoms: _291  and  _292
REMARK  115  A    between atoms: _291  and  _294
REMARK  116  A    between atoms: _294  and  _295
REMARK  117  A    between atoms: _300  and  _302
REMARK  118  A    between atoms: _302  and  _303
REMARK  119  A    between atoms: _302  and  _305
REMARK  120  A    between atoms: _305  and  _306
REMARK  121  A    between atoms: _311  and  _313
REMARK  122  A    between atoms: _313  and  _314
REMARK  123  A    between atoms: _313  and  _316
REMARK  124  A    between atoms: _316  and  _317
REMARK  125  A    between atoms: _320  and  _322
REMARK  126  A    between atoms: _322  and  _323
REMARK  127  A    between atoms: _322  and  _325
REMARK  128  A    between atoms: _328  and  _330
REMARK  129  A    between atoms: _330  and  _331
REMARK  130  A    between atoms: _330  and  _333
REMARK  131  A    between atoms: _333  and  _334
REMARK  132  A    between atoms: _337  and  _339
REMARK  133  A    between atoms: _339  and  _340
REMARK  134  A    between atoms: _339  and  _342
REMARK  135  A    between atoms: _342  and  _343
REMARK  136  A    between atoms: _343  and  _344
REMARK  137  A    between atoms: _347  and  _349
REMARK  138  A    between atoms: _349  and  _350
REMARK  139  A    between atoms: _353  and  _355
REMARK  140  A    between atoms: _355  and  _356
REMARK  141  A    between atoms: _355  and  _358
REMARK  142  A    between atoms: _358  and  _359
REMARK  143  A    between atoms: _362  and  _364
REMARK  144  A    between atoms: _364  and  _365
REMARK  145  A    between atoms: _364  and  _367
REMARK  146  A    between atoms: _367  and  _368
REMARK  147  A    between atoms: _368  and  _369
REMARK  148  A    between atoms: _372  and  _374
REMARK  149  A    between atoms: _374  and  _375
REMARK  150  A    between atoms: _374  and  _377
REMARK  151  A    between atoms: _377  and  _378
REMARK  152  A    between atoms: _383  and  _385
REMARK  153  A    between atoms: _385  and  _386
REMARK  154  A    between atoms: _388  and  _390
REMARK  155  A    between atoms: _390  and  _391
REMARK  156  A    between atoms: _390  and  _393
REMARK  157  A    between atoms: _396  and  _398
REMARK  158  A    between atoms: _398  and  _399
REMARK  159  A    between atoms: _402  and  _404
REMARK  160  A    between atoms: _404  and  _405
REMARK  161  A    between atoms: _404  and  _407
REMARK  162  A    between atoms: _407  and  _408
REMARK  163  A    between atoms: _413  and  _415
REMARK  164  A    between atoms: _415  and  _416
REMARK  165  A    between atoms: _415  and  _418
REMARK  166  A    between atoms: _418  and  _419
REMARK  167  A    between atoms: _419  and  _420
REMARK  168  A    between atoms: _420  and  _421
REMARK  169  A    between atoms: _421  and  _422
REMARK  170  A    between atoms: _426  and  _428
REMARK  171  A    between atoms: _428  and  _429
REMARK  172  A    between atoms: _428  and  _431
REMARK  173  A    between atoms: _431  and  _432
REMARK  174  A    between atoms: _435  and  _437
REMARK  175  A    between atoms: _437  and  _438
REMARK  176  A    between atoms: _437  and  _440
REMARK  177  A    between atoms: _440  and  _441
REMARK  178  A    between atoms: _446  and  _448
REMARK  179  A    between atoms: _448  and  _449
REMARK  180  A    between atoms: _451  and  _453
REMARK  181  A    between atoms: _453  and  _454
REMARK  182  A    between atoms: _453  and  _456
REMARK  183  A    between atoms: _456  and  _457
REMARK  184  A    between atoms: _457  and  _458
REMARK  185  A    between atoms: _458  and  _459
REMARK  186  A    between atoms: _459  and  _460
REMARK  187  A    between atoms: _464  and  _466
REMARK  188  A    between atoms: _466  and  _467
REMARK  189  A    between atoms: _466  and  _469
REMARK  190  A    between atoms: _469  and  _470
REMARK  191  A    between atoms: _470  and  _471
REMARK  192  A    between atoms: _471  and  _472
REMARK  193  A    between atoms: _481  and  _483
REMARK  194  A    between atoms: _483  and  _484
REMARK  195  A    between atoms: _483  and  _486
REMARK  196  A    between atoms: _486  and  _487
REMARK  197  A    between atoms: _492  and  _494
REMARK  198  A    between atoms: _494  and  _495
REMARK  199  A    between atoms: _494  and  _497
REMARK  200  A    between atoms: _497  and  _498
REMARK  201  A    between atoms: _503  and  _504
REMARK  202  A    between atoms: _506  and  _508
REMARK  203  A    between atoms: _508  and  _509
REMARK  204  A    between atoms: _508  and  _511
REMARK  205  A    between atoms: _511  and  _512
REMARK  206  A    between atoms: _512  and  _513
REMARK  207  A    between atoms: _513  and  _514
REMARK  208  A    between atoms: _514  and  _515
REMARK  209  A    between atoms: _519  and  _521
REMARK  210  A    between atoms: _521  and  _522
REMARK  211  A    between atoms: _521  and  _524
REMARK  212  A    between atoms: _524  and  _525
REMARK  213  A    between atoms: _527  and  _529
REMARK  214  A    between atoms: _529  and  _530
REMARK  215  A    between atoms: _529  and  _532
REMARK  216  A    between atoms: _532  and  _533
REMARK  217  A    between atoms: _536  and  _538
REMARK  218  A    between atoms: _538  and  _539
REMARK  219  A    between atoms: _538  and  _541
REMARK  220  A    between atoms: _541  and  _542
REMARK  221  A    between atoms: _542  and  _543
REMARK  222  A    between atoms: _546  and  _548
REMARK  223  A    between atoms: _548  and  _549
REMARK  224  A    between atoms: _552  and  _554
REMARK  225  A    between atoms: _554  and  _555
REMARK  226  A    between atoms: _554  and  _557
REMARK  227  A    between atoms: _557  and  _558
REMARK  228  A    between atoms: _560  and  _562
REMARK  229  A    between atoms: _562  and  _563
REMARK  230  A    between atoms: _565  and  _567
REMARK  231  A    between atoms: _567  and  _568
REMARK  232  A    between atoms: _567  and  _570
REMARK  233  A    between atoms: _570  and  _571
REMARK  234  A    between atoms: _574  and  _576
REMARK  235  A    between atoms: _576  and  _577
REMARK  236  A    between atoms: _579  and  _581
REMARK  237  A    between atoms: _581  and  _582
REMARK  238  A    between atoms: _581  and  _584
REMARK  239  A    between atoms: _584  and  _585
REMARK  240  A    between atoms: _590  and  _592
REMARK  241  A    between atoms: _592  and  _593
REMARK  242  A    between atoms: _592  and  _595
REMARK  243  A    between atoms: _595  and  _596
REMARK  244  A    between atoms: _596  and  _597
REMARK  245  A    between atoms: _604  and  _605
REMARK  246  A    between atoms: _605  and  _621
REMARK  247  A    between atoms: _606  and  _608
REMARK  248  A    between atoms: _608  and  _609
REMARK  249  A    between atoms: _609  and  _610
REMARK  250  A    between atoms: _614  and  _616
REMARK  251  A    between atoms: _616  and  _617
REMARK  252  A    between atoms: _616  and  _624
REMARK  253  A    between atoms: _617  and  _618
REMARK  254  A    between atoms: _618  and  _619
REMARK  255  A    between atoms: _619  and  _620
REMARK  256  A    between atoms: _620  and  _621
REMARK  257  A    between atoms: _626  and  _628
REMARK  258  A    between atoms: _628  and  _629
REMARK  259  A    between atoms: _628  and  _631
REMARK  260  A    between atoms: _631  and  _632
REMARK  261  A    between atoms: _635  and  _637
REMARK  262  A    between atoms: _637  and  _638
REMARK  263  A    between atoms: _640  and  _642
REMARK  264  A    between atoms: _642  and  _643
REMARK  265  A    between atoms: _646  and  _648
REMARK  266  A    between atoms: _648  and  _649
REMARK  267  A    between atoms: _648  and  _651
REMARK  268  A    between atoms: _651  and  _652
REMARK  269  A    between atoms: _657  and  _658
REMARK                            x       y       z     vdW  Elec       q    Type
REMARK                         _______ _______ _______ _____ _____    ______ ____
ROOT
ATOM      1  CB  HIS A   1      37.781  18.348  19.818  0.00  0.00    +0.072 C 
ENDROOT
BRANCH   1   2
ATOM      2  CG  HIS A   1      38.473  18.587  21.124  0.00  0.00    +0.082 A 
ATOM      3  CD2 HIS A   1      38.415  17.911  22.296  0.00  0.00    +0.115 A 
ATOM      4  NE2 HIS A   1      39.241  18.561  23.181  0.00  0.00    -0.221 NA
ATOM      5  CE1 HIS A   1      39.772  19.610  22.580  0.00  0.00    +0.199 A 
ATOM      6  ND1 HIS A   1      39.323  19.652  21.339  0.00  0.00    -0.227 NA
ENDBRANCH   1   2
BRANCH   1   7
ATOM      7  CA  HIS A   1      38.726  18.075  18.637  0.00  0.00    +0.139 C 
BRANCH   7   8
ATOM      8  N   HIS A   1      37.945  17.660  17.474  0.00  0.00    -0.239 NA
ATOM      9  H   HIS A   1      36.967  17.340  17.627  0.00  0.00    +0.142 HD
ENDBRANCH   7   8
BRANCH   7  10
ATOM     10  C   HIS A   1      39.793  17.035  18.990  0.00  0.00    +0.224 C 
ATOM     11  O   HIS A   1      40.956  17.379  19.194  0.00  0.00    -0.287 OA
ENDBRANCH   7  10
ENDBRANCH   1   7
TORSDOF 4
REMARK  Name = ../refined-set-2016/2qrp/2qrp_pocket.pdb
REMARK  269 active torsions:
REMARK  status: ('A' for Active; 'I' for Inactive)
REMARK    1  A    between atoms: _1  and  _3
REMARK    2  A    between atoms: _3  and  _4
REMARK    3  A    between atoms: _3  and  _6
REMARK    4  A    between atoms: _6  and  _7
REMARK    5  A    between atoms: _12  and  _13
REMARK    6  A    between atoms: _15  and  _17
REMARK    7  A    between atoms: _17  and  _18
REMARK    8  A    between atoms: _17  and  _20
REMARK    9  A    between atoms: _20  and  _21
REMARK   10  A    between atoms: _24  and  _26
REMARK   11  A    between atoms: _26  and  _27
REMARK   12  A    between atoms: _26  and  _29
REMARK   13  A    between atoms: _29  and  _30
REMARK   14  A    between atoms: _30  and  _31
REMARK   15  A    between atoms: _34  and  _36
REMARK   16  A    between atoms: _36  and  _37
REMARK   17  A    between atoms: _39  and  _41
REMARK   18  A    between atoms: _41  and  _42
REMARK   19  A    between atoms: _41  and  _44
REMARK   20  A    between atoms: _44  and  _45
REMARK   21  A    between atoms: _50  and  _52
REMARK   22  A    between atoms: _52  and  _53
REMARK   23  A    between atoms: _55  and  _57
REMARK   24  A    between atoms: _57  and  _58
REMARK   25  A    between atoms: _60  and  _62
REMARK   26  A    between atoms: _62  and  _63
REMARK   27  A    between atoms: _62  and  _65
REMARK   28  A    between atoms: _65  and  _66
REMARK   29  A    between atoms: _69  and  _71
REMARK   30  A    between atoms: _71  and  _72
REMARK   31  A    between atoms: _74  and  _76
REMARK   32  A    between atoms: _76  and  _77
REMARK   33  A    between atoms: _76  and  _79
REMARK   34  A    between atoms: _79  and  _80
REMARK   35  A    between atoms: _80  and  _81
REMARK   36  A    between atoms: _81  and  _82
REMARK   37  A    between atoms: _91  and  _93
REMARK   38  A    between atoms: _93  and  _94
REMARK   39  A    between atoms: _93  and  _96
REMARK   40  A    between atoms: _96  and  _97
REMARK   41  A    between atoms: _100  and  _102
REMARK   42  A    between atoms: _102  and  _103
REMARK   43  A    between atoms: _106  and  _108
REMARK   44  A    between atoms: _108  and  _109
REMARK   45  A    between atoms: _108  and  _111
REMARK   46  A    between atoms: _111  and  _112
REMARK   47  A    between atoms: _118  and  _120
REMARK   48  A    between atoms: _120  and  _121
REMARK   49  A    between atoms: _120  and  _123
REMARK   50  A    between atoms: _123  and  _124
REMARK   51  A    between atoms: _127  and  _129
REMARK   52  A    between atoms: _129  and  _130
REMARK   53  A    between atoms: _129  and  _132
REMARK   54  A    between atoms: _132  and  _133
REMARK   55  A    between atoms: _138  and  _139
REMARK   56  A    between atoms: _142  and  _143
REMARK   57  A    between atoms: _148  and  _150
REMARK   58  A    between atoms: _150  and  _151
REMARK   59  A    between atoms: _150  and  _153
REMARK   60  A    between atoms: _153  and  _154
REMARK   61  A    between atoms: _159  and  _161
REMARK   62  A    between atoms: _161  and  _162
REMARK   63  A    between atoms: _161  and  _164
REMARK   64  A    between atoms: _164  and  _165
REMARK   65  A    between atoms: _168  and  _170
REMARK   66  A    between atoms: _170  and  _171
REMARK   67  A    between atoms: _170  and  _173
REMARK   68  A    between atoms: _173  and  _174
REMARK   69  A    between atoms: _179  and  _181
REMARK   70  A    between atoms: _181  and  _182
REMARK   71  A    between atoms: _181  and  _184
REMARK   72  A    between atoms: _184  and  _185
REMARK   73  A    between atoms: _191  and  _193
REMARK   74  A    between atoms: _193  and  _194
REMARK   75  A    between atoms: _193  and  _196
REMARK   76  A    between atoms: _196  and  _197
REMARK   77  A    between atoms: _203  and  _205
REMARK   78  A    between atoms: _205  and  _206
REMARK   79  A    between atoms: _205  and  _208
REMARK   80  A    between atoms: _208  and  _209
REMARK   81  A    between atoms: _209  and  _210
REMARK   82  A    between atoms: _213  and  _215
REMARK   83  A    between atoms: _215  and  _216
REMARK   84  A    between atoms: _215  and  _218
REMARK   85  A    between atoms: _218  and  _219
REMARK   86  A    between atoms: _219  and  _220
REMARK   87  A    between atoms: _220  and  _221
REMARK   88  A    between atoms: _230  and  _232
REMARK   89  A    between atoms: _232  and  _233
REMARK   90  A    between atoms: _232  and  _235
REMARK   91  A    between atoms: _235  and  _236
REMARK   92  A    between atoms: _236  and  _237
REMARK   93  A    between atoms: _240  and  _242
REMARK   94  A    between atoms: _242  and  _243
REMARK   95  A    between atoms: _242  and  _245
REMARK   96  A    between atoms: _245  and  _246
REMARK   97  A    between atoms: _251  and  _253
REMARK   98  A    between atoms: _253  and  _254
REMARK   99  A    between atoms: _253  and  _256
REMARK  100  A    between atoms: _256  and  _257
REMARK  101  A    between atoms: _260  and  _262
REMARK  102  A    between atoms: _262  and  _263
REMARK  103  A    between atoms: _262  and  _265
REMARK  104  A    between atoms: _265  and  _266
REMARK  105  A    between atoms: _269  and  _271
REMARK  106  A    between atoms: _271  and  _272
REMARK  107  A    between atoms: _271  and  _274
REMARK  108  A    between atoms: _274  and  _275
REMARK  109  A    between atoms: _280  and  _282
REMARK  110  A    between atoms: _282  and  _283
REMARK  111  A    between atoms: _282  and  _285
REMARK  112  A    between atoms: _285  and  _286
REMARK  113  A    between atoms: _289  and  _291
REMARK  114  A    between atoms: _291  and  _292
REMARK  115  A    between atoms: _291  and  _294
REMARK  116  A    between atoms: _294  and  _295
REMARK  117  A    between atoms: _300  and  _302
REMARK  118  A    between atoms: _302  and  _303
REMARK  119  A    between atoms: _302  and  _305
REMARK  120  A    between atoms: _305  and  _306
REMARK  121  A    between atoms: _311  and  _313
REMARK  122  A    between atoms: _313  and  _314
REMARK  123  A    between atoms: _313  and  _316
REMARK  124  A    between atoms: _316  and  _317
REMARK  125  A    between atoms: _320  and  _322
REMARK  126  A    between atoms: _322  and  _323
REMARK  127  A    between atoms: _322  and  _325
REMARK  128  A    between atoms: _328  and  _330
REMARK  129  A    between atoms: _330  and  _331
REMARK  130  A    between atoms: _330  and  _333
REMARK  131  A    between atoms: _333  and  _334
REMARK  132  A    between atoms: _337  and  _339
REMARK  133  A    between atoms: _339  and  _340
REMARK  134  A    between atoms: _339  and  _342
REMARK  135  A    between atoms: _342  and  _343
REMARK  136  A    between atoms: _343  and  _344
REMARK  137  A    between atoms: _347  and  _349
REMARK  138  A    between atoms: _349  and  _350
REMARK  139  A    between atoms: _353  and  _355
REMARK  140  A    between atoms: _355  and  _356
REMARK  141  A    between atoms: _355  and  _358
REMARK  142  A    between atoms: _358  and  _359
REMARK  143  A    between atoms: _362  and  _364
REMARK  144  A    between atoms: _364  and  _365
REMARK  145  A    between atoms: _364  and  _367
REMARK  146  A    between atoms: _367  and  _368
REMARK  147  A    between atoms: _368  and  _369
REMARK  148  A    between atoms: _372  and  _374
REMARK  149  A    between atoms: _374  and  _375
REMARK  150  A    between atoms: _374  and  _377
REMARK  151  A    between atoms: _377  and  _378
REMARK  152  A    between atoms: _383  and  _385
REMARK  153  A    between atoms: _385  and  _386
REMARK  154  A    between atoms: _388  and  _390
REMARK  155  A    between atoms: _390  and  _391
REMARK  156  A    between atoms: _390  and  _393
REMARK  157  A    between atoms: _396  and  _398
REMARK  158  A    between atoms: _398  and  _399
REMARK  159  A    between atoms: _402  and  _404
REMARK  160  A    between atoms: _404  and  _405
REMARK  161  A    between atoms: _404  and  _407
REMARK  162  A    between atoms: _407  and  _408
REMARK  163  A    between atoms: _413  and  _415
REMARK  164  A    between atoms: _415  and  _416
REMARK  165  A    between atoms: _415  and  _418
REMARK  166  A    between atoms: _418  and  _419
REMARK  167  A    between atoms: _419  and  _420
REMARK  168  A    between atoms: _420  and  _421
REMARK  169  A    between atoms: _421  and  _422
REMARK  170  A    between atoms: _426  and  _428
REMARK  171  A    between atoms: _428  and  _429
REMARK  172  A    between atoms: _428  and  _431
REMARK  173  A    between atoms: _431  and  _432
REMARK  174  A    between atoms: _435  and  _437
REMARK  175  A    between atoms: _437  and  _438
REMARK  176  A    between atoms: _437  and  _440
REMARK  177  A    between atoms: _440  and  _441
REMARK  178  A    between atoms: _446  and  _448
REMARK  179  A    between atoms: _448  and  _449
REMARK  180  A    between atoms: _451  and  _453
REMARK  181  A    between atoms: _453  and  _454
REMARK  182  A    between atoms: _453  and  _456
REMARK  183  A    between atoms: _456  and  _457
REMARK  184  A    between atoms: _457  and  _458
REMARK  185  A    between atoms: _458  and  _459
REMARK  186  A    between atoms: _459  and  _460
REMARK  187  A    between atoms: _464  and  _466
REMARK  188  A    between atoms: _466  and  _467
REMARK  189  A    between atoms: _466  and  _469
REMARK  190  A    between atoms: _469  and  _470
REMARK  191  A    between atoms: _470  and  _471
REMARK  192  A    between atoms: _471  and  _472
REMARK  193  A    between atoms: _481  and  _483
REMARK  194  A    between atoms: _483  and  _484
REMARK  195  A    between atoms: _483  and  _486
REMARK  196  A    between atoms: _486  and  _487
REMARK  197  A    between atoms: _492  and  _494
REMARK  198  A    between atoms: _494  and  _495
REMARK  199  A    between atoms: _494  and  _497
REMARK  200  A    between atoms: _497  and  _498
REMARK  201  A    between atoms: _503  and  _504
REMARK  202  A    between atoms: _506  and  _508
REMARK  203  A    between atoms: _508  and  _509
REMARK  204  A    between atoms: _508  and  _511
REMARK  205  A    between atoms: _511  and  _512
REMARK  206  A    between atoms: _512  and  _513
REMARK  207  A    between atoms: _513  and  _514
REMARK  208  A    between atoms: _514  and  _515
REMARK  209  A    between atoms: _519  and  _521
REMARK  210  A    between atoms: _521  and  _522
REMARK  211  A    between atoms: _521  and  _524
REMARK  212  A    between atoms: _524  and  _525
REMARK  213  A    between atoms: _527  and  _529
REMARK  214  A    between atoms: _529  and  _530
REMARK  215  A    between atoms: _529  and  _532
REMARK  216  A    between atoms: _532  and  _533
REMARK  217  A    between atoms: _536  and  _538
REMARK  218  A    between atoms: _538  and  _539
REMARK  219  A    between atoms: _538  and  _541
REMARK  220  A    between atoms: _541  and  _542
REMARK  221  A    between atoms: _542  and  _543
REMARK  222  A    between atoms: _546  and  _548
REMARK  223  A    between atoms: _548  and  _549
REMARK  224  A    between atoms: _552  and  _554
REMARK  225  A    between atoms: _554  and  _555
REMARK  226  A    between atoms: _554  and  _557
REMARK  227  A    between atoms: _557  and  _558
REMARK  228  A    between atoms: _560  and  _562
REMARK  229  A    between atoms: _562  and  _563
REMARK  230  A    between atoms: _565  and  _567
REMARK  231  A    between atoms: _567  and  _568
REMARK  232  A    between atoms: _567  and  _570
REMARK  233  A    between atoms: _570  and  _571
REMARK  234  A    between atoms: _574  and  _576
REMARK  235  A    between atoms: _576  and  _577
REMARK  236  A    between atoms: _579  and  _581
REMARK  237  A    between atoms: _581  and  _582
REMARK  238  A    between atoms: _581  and  _584
REMARK  239  A    between atoms: _584  and  _585
REMARK  240  A    between atoms: _590  and  _592
REMARK  241  A    between atoms: _592  and  _593
REMARK  242  A    between atoms: _592  and  _595
REMARK  243  A    between atoms: _595  and  _596
REMARK  244  A    between atoms: _596  and  _597
REMARK  245  A    between atoms: _604  and  _605
REMARK  246  A    between atoms: _605  and  _621
REMARK  247  A    between atoms: _606  and  _608
REMARK  248  A    between atoms: _608  and  _609
REMARK  249  A    between atoms: _609  and  _610
REMARK  250  A    between atoms: _614  and  _616
REMARK  251  A    between atoms: _616  and  _617
REMARK  252  A    between atoms: _616  and  _624
REMARK  253  A    between atoms: _617  and  _618
REMARK  254  A    between atoms: _618  and  _619
REMARK  255  A    between atoms: _619  and  _620
REMARK  256  A    between atoms: _620  and  _621
REMARK  257  A    between atoms: _626  and  _628
REMARK  258  A    between atoms: _628  and  _629
REMARK  259  A    between atoms: _628  and  _631
REMARK  260  A    between atoms: _631  and  _632
REMARK  261  A    between atoms: _635  and  _637
REMARK  262  A    between atoms: _637  and  _638
REMARK  263  A    between atoms: _640  and  _642
REMARK  264  A    between atoms: _642  and  _643
REMARK  265  A    between atoms: _646  and  _648
REMARK  266  A    between atoms: _648  and  _649
REMARK  267  A    between atoms: _648  and  _651
REMARK  268  A    between atoms: _651  and  _652
REMARK  269  A    between atoms: _657  and  _658
REMARK                            x       y       z     vdW  Elec       q    Type
REMARK                         _______ _______ _______ _____ _____    ______ ____
ROOT
ATOM      1  CA  THR A   2      32.222  12.331  21.050  0.00  0.00    +0.176 C 
ENDROOT
BRANCH   1   4
ATOM      2  C   LYS A   1      33.817  11.259  22.527  0.00  0.00    +0.238 C 
ATOM      3  O   LYS A   1      33.714  12.163  23.353  0.00  0.00    -0.274 OA
ATOM      4  N   THR A   2      33.136  11.244  21.384  0.00  0.00    -0.295 N 
ATOM      5  H   THR A   2      33.256  10.450  20.723  0.00  0.00    +0.150 HD
BRANCH   2   6
ATOM      6  CA  LYS A   1      34.769  10.100  22.766  0.00  0.00    +0.145 C 
BRANCH   6   7
ATOM      7  N   LYS A   1      36.067  10.468  22.215  0.00  0.00    -0.238 NA
ATOM      8  H   LYS A   1      36.428  11.430  22.378  0.00  0.00    +0.142 HD
ENDBRANCH   6   7
BRANCH   6   9
ATOM      9  CB  LYS A   1      34.862   9.786  24.263  0.00  0.00    +0.026 C 
BRANCH   9  10
ATOM     10  CG  LYS A   1      35.752   8.599  24.624  0.00  0.00    -0.000 C 
BRANCH  10  11
ATOM     11  CD  LYS A   1      35.136   7.281  24.193  0.00  0.00    -0.024 C 
BRANCH  11  12
ATOM     12  CE  LYS A   1      36.162   6.151  24.263  0.00  0.00    -0.086 C 
BRANCH  12  13
ATOM     13  NZ  LYS A   1      37.091   6.147  23.090  0.00  0.00    +0.380 N 
ATOM     14  HZ1 LYS A   1      37.766   5.362  23.187  0.00  0.00    -0.089 HD
ATOM     15  HZ2 LYS A   1      37.608   7.048  23.056  0.00  0.00    -0.089 HD
ATOM     16  HZ3 LYS A   1      36.542   6.028  22.215  0.00  0.00    -0.089 HD
ENDBRANCH  12  13
ENDBRANCH  11  12
ENDBRANCH  10  11
ENDBRANCH   9  10
ENDBRANCH   6   9
ENDBRANCH   2   6
ENDBRANCH   1   4
BRANCH   1  17
ATOM     17  C   THR A   2      31.177  12.452  22.151  0.00  0.00    +0.243 C 
ATOM     18  O   THR A   2      30.631  11.444  22.613  0.00  0.00    -0.273 OA
ATOM     19  N   ASN A   3      30.937  13.686  22.587  0.00  0.00    -0.297 N 
ATOM     20  H   ASN A   3      31.451  14.481  22.156  0.00  0.00    +0.150 HD
BRANCH  19  21
ATOM     21  CA  ASN A   3      29.976  13.961  23.651  0.00  0.00    +0.158 C 
BRANCH  21  22
ATOM     22  C   ASN A   3      28.568  13.483  23.314  0.00  0.00    +0.241 C 
ATOM     23  N   GLY A   4      27.731  13.455  24.342  0.00  0.00    -0.296 N 
ATOM     24  H   GLY A   4      28.084  13.731  25.280  0.00  0.00    +0.150 HD
ATOM     25  O   ASN A   3      28.258  13.136  22.166  0.00  0.00    -0.273 OA
BRANCH  23  26
ATOM     26  CA  GLY A   4      26.348  13.056  24.212  0.00  0.00    +0.163 C 
BRANCH  26  27
ATOM     27  C   GLY A   4      25.527  13.731  25.288  0.00  0.00    +0.229 C 
ATOM     28  O   GLY A   4      26.070  14.385  26.186  0.00  0.00    -0.286 OA
ENDBRANCH  26  27
ENDBRANCH  23  26
ENDBRANCH  21  22
BRANCH  21  29
ATOM     29  CB  ASN A   3      29.950  15.455  23.997  0.00  0.00    +0.114 C 
BRANCH  29  30
ATOM     30  CG  ASN A   3      31.106  15.883  24.900  0.00  0.00    +0.222 C 
ATOM     31  ND2 ASN A   3      31.805  14.923  25.483  0.00  0.00    -0.329 N 
ATOM     32 HD21 ASN A   3      32.597  15.165  26.112  0.00  0.00    +0.145 HD
ATOM     33 HD22 ASN A   3      31.563  13.926  25.312  0.00  0.00    +0.145 HD
ATOM     34  OD1 ASN A   3      31.352  17.075  25.069  0.00  0.00    -0.275 OA
ENDBRANCH  29  30
ENDBRANCH  21  29
ENDBRANCH  19  21
ENDBRANCH   1  17
BRANCH   1  35
ATOM     35  CB  THR A   2      31.568  12.140  19.666  0.00  0.00    +0.137 C 
ATOM     36  CG2 THR A   2      30.614  13.290  19.347  0.00  0.00    +0.034 C 
BRANCH  35  37
ATOM     37  OG1 THR A   2      32.593  12.101  18.669  0.00  0.00    -0.382 OA
ATOM     38  HG1 THR A   2      32.180  11.979  17.778  0.00  0.00    +0.210 HD
ENDBRANCH  35  37
ENDBRANCH   1  35
TORSDOF 17
REMARK  Name = ../refined-set-2016/2qrp/2qrp_pocket.pdb
REMARK  269 active torsions:
REMARK  status: ('A' for Active; 'I' for Inactive)
REMARK    1  A    between atoms: _1  and  _3
REMARK    2  A    between atoms: _3  and  _4
REMARK    3  A    between atoms: _3  and  _6
REMARK    4  A    between atoms: _6  and  _7
REMARK    5  A    between atoms: _12  and  _13
REMARK    6  A    between atoms: _15  and  _17
REMARK    7  A    between atoms: _17  and  _18
REMARK    8  A    between atoms: _17  and  _20
REMARK    9  A    between atoms: _20  and  _21
REMARK   10  A    between atoms: _24  and  _26
REMARK   11  A    between atoms: _26  and  _27
REMARK   12  A    between atoms: _26  and  _29
REMARK   13  A    between atoms: _29  and  _30
REMARK   14  A    between atoms: _30  and  _31
REMARK   15  A    between atoms: _34  and  _36
REMARK   16  A    between atoms: _36  and  _37
REMARK   17  A    between atoms: _39  and  _41
REMARK   18  A    between atoms: _41  and  _42
REMARK   19  A    between atoms: _41  and  _44
REMARK   20  A    between atoms: _44  and  _45
REMARK   21  A    between atoms: _50  and  _52
REMARK   22  A    between atoms: _52  and  _53
REMARK   23  A    between atoms: _55  and  _57
REMARK   24  A    between atoms: _57  and  _58
REMARK   25  A    between atoms: _60  and  _62
REMARK   26  A    between atoms: _62  and  _63
REMARK   27  A    between atoms: _62  and  _65
REMARK   28  A    between atoms: _65  and  _66
REMARK   29  A    between atoms: _69  and  _71
REMARK   30  A    between atoms: _71  and  _72
REMARK   31  A    between atoms: _74  and  _76
REMARK   32  A    between atoms: _76  and  _77
REMARK   33  A    between atoms: _76  and  _79
REMARK   34  A    between atoms: _79  and  _80
REMARK   35  A    between atoms: _80  and  _81
REMARK   36  A    between atoms: _81  and  _82
REMARK   37  A    between atoms: _91  and  _93
REMARK   38  A    between atoms: _93  and  _94
REMARK   39  A    between atoms: _93  and  _96
REMARK   40  A    between atoms: _96  and  _97
REMARK   41  A    between atoms: _100  and  _102
REMARK   42  A    between atoms: _102  and  _103
REMARK   43  A    between atoms: _106  and  _108
REMARK   44  A    between atoms: _108  and  _109
REMARK   45  A    between atoms: _108  and  _111
REMARK   46  A    between atoms: _111  and  _112
REMARK   47  A    between atoms: _118  and  _120
REMARK   48  A    between atoms: _120  and  _121
REMARK   49  A    between atoms: _120  and  _123
REMARK   50  A    between atoms: _123  and  _124
REMARK   51  A    between atoms: _127  and  _129
REMARK   52  A    between atoms: _129  and  _130
REMARK   53  A    between atoms: _129  and  _132
REMARK   54  A    between atoms: _132  and  _133
REMARK   55  A    between atoms: _138  and  _139
REMARK   56  A    between atoms: _142  and  _143
REMARK   57  A    between atoms: _148  and  _150
REMARK   58  A    between atoms: _150  and  _151
REMARK   59  A    between atoms: _150  and  _153
REMARK   60  A    between atoms: _153  and  _154
REMARK   61  A    between atoms: _159  and  _161
REMARK   62  A    between atoms: _161  and  _162
REMARK   63  A    between atoms: _161  and  _164
REMARK   64  A    between atoms: _164  and  _165
REMARK   65  A    between atoms: _168  and  _170
REMARK   66  A    between atoms: _170  and  _171
REMARK   67  A    between atoms: _170  and  _173
REMARK   68  A    between atoms: _173  and  _174
REMARK   69  A    between atoms: _179  and  _181
REMARK   70  A    between atoms: _181  and  _182
REMARK   71  A    between atoms: _181  and  _184
REMARK   72  A    between atoms: _184  and  _185
REMARK   73  A    between atoms: _191  and  _193
REMARK   74  A    between atoms: _193  and  _194
REMARK   75  A    between atoms: _193  and  _196
REMARK   76  A    between atoms: _196  and  _197
REMARK   77  A    between atoms: _203  and  _205
REMARK   78  A    between atoms: _205  and  _206
REMARK   79  A    between atoms: _205  and  _208
REMARK   80  A    between atoms: _208  and  _209
REMARK   81  A    between atoms: _209  and  _210
REMARK   82  A    between atoms: _213  and  _215
REMARK   83  A    between atoms: _215  and  _216
REMARK   84  A    between atoms: _215  and  _218
REMARK   85  A    between atoms: _218  and  _219
REMARK   86  A    between atoms: _219  and  _220
REMARK   87  A    between atoms: _220  and  _221
REMARK   88  A    between atoms: _230  and  _232
REMARK   89  A    between atoms: _232  and  _233
REMARK   90  A    between atoms: _232  and  _235
REMARK   91  A    between atoms: _235  and  _236
REMARK   92  A    between atoms: _236  and  _237
REMARK   93  A    between atoms: _240  and  _242
REMARK   94  A    between atoms: _242  and  _243
REMARK   95  A    between atoms: _242  and  _245
REMARK   96  A    between atoms: _245  and  _246
REMARK   97  A    between atoms: _251  and  _253
REMARK   98  A    between atoms: _253  and  _254
REMARK   99  A    between atoms: _253  and  _256
REMARK  100  A    between atoms: _256  and  _257
REMARK  101  A    between atoms: _260  and  _262
REMARK  102  A    between atoms: _262  and  _263
REMARK  103  A    between atoms: _262  and  _265
REMARK  104  A    between atoms: _265  and  _266
REMARK  105  A    between atoms: _269  and  _271
REMARK  106  A    between atoms: _271  and  _272
REMARK  107  A    between atoms: _271  and  _274
REMARK  108  A    between atoms: _274  and  _275
REMARK  109  A    between atoms: _280  and  _282
REMARK  110  A    between atoms: _282  and  _283
REMARK  111  A    between atoms: _282  and  _285
REMARK  112  A    between atoms: _285  and  _286
REMARK  113  A    between atoms: _289  and  _291
REMARK  114  A    between atoms: _291  and  _292
REMARK  115  A    between atoms: _291  and  _294
REMARK  116  A    between atoms: _294  and  _295
REMARK  117  A    between atoms: _300  and  _302
REMARK  118  A    between atoms: _302  and  _303
REMARK  119  A    between atoms: _302  and  _305
REMARK  120  A    between atoms: _305  and  _306
REMARK  121  A    between atoms: _311  and  _313
REMARK  122  A    between atoms: _313  and  _314
REMARK  123  A    between atoms: _313  and  _316
REMARK  124  A    between atoms: _316  and  _317
REMARK  125  A    between atoms: _320  and  _322
REMARK  126  A    between atoms: _322  and  _323
REMARK  127  A    between atoms: _322  and  _325
REMARK  128  A    between atoms: _328  and  _330
REMARK  129  A    between atoms: _330  and  _331
REMARK  130  A    between atoms: _330  and  _333
REMARK  131  A    between atoms: _333  and  _334
REMARK  132  A    between atoms: _337  and  _339
REMARK  133  A    between atoms: _339  and  _340
REMARK  134  A    between atoms: _339  and  _342
REMARK  135  A    between atoms: _342  and  _343
REMARK  136  A    between atoms: _343  and  _344
REMARK  137  A    between atoms: _347  and  _349
REMARK  138  A    between atoms: _349  and  _350
REMARK  139  A    between atoms: _353  and  _355
REMARK  140  A    between atoms: _355  and  _356
REMARK  141  A    between atoms: _355  and  _358
REMARK  142  A    between atoms: _358  and  _359
REMARK  143  A    between atoms: _362  and  _364
REMARK  144  A    between atoms: _364  and  _365
REMARK  145  A    between atoms: _364  and  _367
REMARK  146  A    between atoms: _367  and  _368
REMARK  147  A    between atoms: _368  and  _369
REMARK  148  A    between atoms: _372  and  _374
REMARK  149  A    between atoms: _374  and  _375
REMARK  150  A    between atoms: _374  and  _377
REMARK  151  A    between atoms: _377  and  _378
REMARK  152  A    between atoms: _383  and  _385
REMARK  153  A    between atoms: _385  and  _386
REMARK  154  A    between atoms: _388  and  _390
REMARK  155  A    between atoms: _390  and  _391
REMARK  156  A    between atoms: _390  and  _393
REMARK  157  A    between atoms: _396  and  _398
REMARK  158  A    between atoms: _398  and  _399
REMARK  159  A    between atoms: _402  and  _404
REMARK  160  A    between atoms: _404  and  _405
REMARK  161  A    between atoms: _404  and  _407
REMARK  162  A    between atoms: _407  and  _408
REMARK  163  A    between atoms: _413  and  _415
REMARK  164  A    between atoms: _415  and  _416
REMARK  165  A    between atoms: _415  and  _418
REMARK  166  A    between atoms: _418  and  _419
REMARK  167  A    between atoms: _419  and  _420
REMARK  168  A    between atoms: _420  and  _421
REMARK  169  A    between atoms: _421  and  _422
REMARK  170  A    between atoms: _426  and  _428
REMARK  171  A    between atoms: _428  and  _429
REMARK  172  A    between atoms: _428  and  _431
REMARK  173  A    between atoms: _431  and  _432
REMARK  174  A    between atoms: _435  and  _437
REMARK  175  A    between atoms: _437  and  _438
REMARK  176  A    between atoms: _437  and  _440
REMARK  177  A    between atoms: _440  and  _441
REMARK  178  A    between atoms: _446  and  _448
REMARK  179  A    between atoms: _448  and  _449
REMARK  180  A    between atoms: _451  and  _453
REMARK  181  A    between atoms: _453  and  _454
REMARK  182  A    between atoms: _453  and  _456
REMARK  183  A    between atoms: _456  and  _457
REMARK  184  A    between atoms: _457  and  _458
REMARK  185  A    between atoms: _458  and  _459
REMARK  186  A    between atoms: _459  and  _460
REMARK  187  A    between atoms: _464  and  _466
REMARK  188  A    between atoms: _466  and  _467
REMARK  189  A    between atoms: _466  and  _469
REMARK  190  A    between atoms: _469  and  _470
REMARK  191  A    between atoms: _470  and  _471
REMARK  192  A    between atoms: _471  and  _472
REMARK  193  A    between atoms: _481  and  _483
REMARK  194  A    between atoms: _483  and  _484
REMARK  195  A    between atoms: _483  and  _486
REMARK  196  A    between atoms: _486  and  _487
REMARK  197  A    between atoms: _492  and  _494
REMARK  198  A    between atoms: _494  and  _495
REMARK  199  A    between atoms: _494  and  _497
REMARK  200  A    between atoms: _497  and  _498
REMARK  201  A    between atoms: _503  and  _504
REMARK  202  A    between atoms: _506  and  _508
REMARK  203  A    between atoms: _508  and  _509
REMARK  204  A    between atoms: _508  and  _511
REMARK  205  A    between atoms: _511  and  _512
REMARK  206  A    between atoms: _512  and  _513
REMARK  207  A    between atoms: _513  and  _514
REMARK  208  A    between atoms: _514  and  _515
REMARK  209  A    between atoms: _519  and  _521
REMARK  210  A    between atoms: _521  and  _522
REMARK  211  A    between atoms: _521  and  _524
REMARK  212  A    between atoms: _524  and  _525
REMARK  213  A    between atoms: _527  and  _529
REMARK  214  A    between atoms: _529  and  _530
REMARK  215  A    between atoms: _529  and  _532
REMARK  216  A    between atoms: _532  and  _533
REMARK  217  A    between atoms: _536  and  _538
REMARK  218  A    between atoms: _538  and  _539
REMARK  219  A    between atoms: _538  and  _541
REMARK  220  A    between atoms: _541  and  _542
REMARK  221  A    between atoms: _542  and  _543
REMARK  222  A    between atoms: _546  and  _548
REMARK  223  A    between atoms: _548  and  _549
REMARK  224  A    between atoms: _552  and  _554
REMARK  225  A    between atoms: _554  and  _555
REMARK  226  A    between atoms: _554  and  _557
REMARK  227  A    between atoms: _557  and  _558
REMARK  228  A    between atoms: _560  and  _562
REMARK  229  A    between atoms: _562  and  _563
REMARK  230  A    between atoms: _565  and  _567
REMARK  231  A    between atoms: _567  and  _568
REMARK  232  A    between atoms: _567  and  _570
REMARK  233  A    between atoms: _570  and  _571
REMARK  234  A    between atoms: _574  and  _576
REMARK  235  A    between atoms: _576  and  _577
REMARK  236  A    between atoms: _579  and  _581
REMARK  237  A    between atoms: _581  and  _582
REMARK  238  A    between atoms: _581  and  _584
REMARK  239  A    between atoms: _584  and  _585
REMARK  240  A    between atoms: _590  and  _592
REMARK  241  A    between atoms: _592  and  _593
REMARK  242  A    between atoms: _592  and  _595
REMARK  243  A    between atoms: _595  and  _596
REMARK  244  A    between atoms: _596  and  _597
REMARK  245  A    between atoms: _604  and  _605
REMARK  246  A    between atoms: _605  and  _621
REMARK  247  A    between atoms: _606  and  _608
REMARK  248  A    between atoms: _608  and  _609
REMARK  249  A    between atoms: _609  and  _610
REMARK  250  A    between atoms: _614  and  _616
REMARK  251  A    between atoms: _616  and  _617
REMARK  252  A    between atoms: _616  and  _624
REMARK  253  A    between atoms: _617  and  _618
REMARK  254  A    between atoms: _618  and  _619
REMARK  255  A    between atoms: _619  and  _620
REMARK  256  A    between atoms: _620  and  _621
REMARK  257  A    between atoms: _626  and  _628
REMARK  258  A    between atoms: _628  and  _629
REMARK  259  A    between atoms: _628  and  _631
REMARK  260  A    between atoms: _631  and  _632
REMARK  261  A    between atoms: _635  and  _637
REMARK  262  A    between atoms: _637  and  _638
REMARK  263  A    between atoms: _640  and  _642
REMARK  264  A    between atoms: _642  and  _643
REMARK  265  A    between atoms: _646  and  _648
REMARK  266  A    between atoms: _648  and  _649
REMARK  267  A    between atoms: _648  and  _651
REMARK  268  A    between atoms: _651  and  _652
REMARK  269  A    between atoms: _657  and  _658
REMARK                            x       y       z     vdW  Elec       q    Type
REMARK                         _______ _______ _______ _____ _____    ______ ____
ROOT
ATOM      1  C   LYS A   1      25.636  30.210  26.729  0.00  0.00    +0.238 C 
ATOM      2  N   ARG A   2      26.708  29.887  27.450  0.00  0.00    -0.298 N 
ATOM      3  H   ARG A   2      27.000  28.890  27.508  0.00  0.00    +0.150 HD
ATOM      4  O   LYS A   1      25.194  31.357  26.657  0.00  0.00    -0.274 OA
ENDROOT
BRANCH   1   5
ATOM      5  CA  LYS A   1      24.942  29.084  25.984  0.00  0.00    +0.145 C 
BRANCH   5   6
ATOM      6  N   LYS A   1      23.611  29.596  25.662  0.00  0.00    -0.238 NA
ATOM      7  H   LYS A   1      23.325  30.502  26.084  0.00  0.00    +0.142 HD
ENDBRANCH   5   6
BRANCH   5   8
ATOM      8  CB  LYS A   1      25.739  28.716  24.716  0.00  0.00    +0.026 C 
BRANCH   8   9
ATOM      9  CG  LYS A   1      25.832  29.840  23.677  0.00  0.00    -0.000 C 
BRANCH   9  10
ATOM     10  CD  LYS A   1      26.437  29.399  22.345  0.00  0.00    -0.024 C 
BRANCH  10  11
ATOM     11  CE  LYS A   1      25.527  28.452  21.565  0.00  0.00    -0.086 C 
BRANCH  11  12
ATOM     12  NZ  LYS A   1      26.093  27.079  21.535  0.00  0.00    +0.380 N 
ATOM     13  HZ1 LYS A   1      26.191  26.724  22.508  0.00  0.00    -0.089 HD
ATOM     14  HZ2 LYS A   1      27.026  27.100  21.077  0.00  0.00    -0.089 HD
ATOM     15  HZ3 LYS A   1      25.457  26.455  20.999  0.00  0.00    -0.089 HD
ENDBRANCH  11  12
ENDBRANCH  10  11
ENDBRANCH   9  10
ENDBRANCH   8   9
ENDBRANCH   5   8
ENDBRANCH   1   5
BRANCH   2  16
ATOM     16  CA  ARG A   2      27.485  30.902  28.162  0.00  0.00    +0.137 C 
BRANCH  16  17
ATOM     17  C   ARG A   2      27.968  31.996  27.208  0.00  0.00    +0.227 C 
ATOM     18  O   ARG A   2      28.289  31.719  26.049  0.00  0.00    -0.286 OA
ENDBRANCH  16  17
BRANCH  16  19
ATOM     19  CB  ARG A   2      28.668  30.254  28.894  0.00  0.00    +0.031 C 
BRANCH  19  20
ATOM     20  CG  ARG A   2      28.259  29.402  30.099  0.00  0.00    +0.045 C 
BRANCH  20  21
ATOM     21  CD  ARG A   2      27.621  30.254  31.196  0.00  0.00    +0.174 C 
BRANCH  21  22
ATOM     22  NE  ARG A   2      28.589  31.198  31.749  0.00  0.00    -0.265 N 
ATOM     23  CZ  ARG A   2      29.306  30.983  32.848  0.00  0.00    +0.342 C 
ATOM     24  NH2 ARG A   2      29.157  29.858  33.540  0.00  0.00    -0.292 N 
ATOM     25 HH21 ARG A   2      29.721  29.697  34.399  0.00  0.00    +0.255 HD
ATOM     26 HH22 ARG A   2      28.476  29.139  33.223  0.00  0.00    +0.255 HD
ATOM     27  NH1 ARG A   2      30.169  31.899  33.258  0.00  0.00    -0.292 N 
ATOM     28 HH11 ARG A   2      30.732  31.735  34.117  0.00  0.00    +0.255 HD
ATOM     29 HH12 ARG A   2      30.284  32.782  32.721  0.00  0.00    +0.255 HD
ATOM     30  HE  ARG A   2      28.727  32.100  31.249  0.00  0.00    +0.259 HD
ENDBRANCH  21  22
ENDBRANCH  20  21
ENDBRANCH  19  20
ENDBRANCH  16  19
ENDBRANCH   2  16
TORSDOF 13
REMARK  Name = ../refined-set-2016/2qrp/2qrp_pocket.pdb
REMARK  269 active torsions:
REMARK  status: ('A' for Active; 'I' for Inactive)
REMARK    1  A    between atoms: _1  and  _3
REMARK    2  A    between atoms: _3  and  _4
REMARK    3  A    between atoms: _3  and  _6
REMARK    4  A    between atoms: _6  and  _7
REMARK    5  A    between atoms: _12  and  _13
REMARK    6  A    between atoms: _15  and  _17
REMARK    7  A    between atoms: _17  and  _18
REMARK    8  A    between atoms: _17  and  _20
REMARK    9  A    between atoms: _20  and  _21
REMARK   10  A    between atoms: _24  and  _26
REMARK   11  A    between atoms: _26  and  _27
REMARK   12  A    between atoms: _26  and  _29
REMARK   13  A    between atoms: _29  and  _30
REMARK   14  A    between atoms: _30  and  _31
REMARK   15  A    between atoms: _34  and  _36
REMARK   16  A    between atoms: _36  and  _37
REMARK   17  A    between atoms: _39  and  _41
REMARK   18  A    between atoms: _41  and  _42
REMARK   19  A    between atoms: _41  and  _44
REMARK   20  A    between atoms: _44  and  _45
REMARK   21  A    between atoms: _50  and  _52
REMARK   22  A    between atoms: _52  and  _53
REMARK   23  A    between atoms: _55  and  _57
REMARK   24  A    between atoms: _57  and  _58
REMARK   25  A    between atoms: _60  and  _62
REMARK   26  A    between atoms: _62  and  _63
REMARK   27  A    between atoms: _62  and  _65
REMARK   28  A    between atoms: _65  and  _66
REMARK   29  A    between atoms: _69  and  _71
REMARK   30  A    between atoms: _71  and  _72
REMARK   31  A    between atoms: _74  and  _76
REMARK   32  A    between atoms: _76  and  _77
REMARK   33  A    between atoms: _76  and  _79
REMARK   34  A    between atoms: _79  and  _80
REMARK   35  A    between atoms: _80  and  _81
REMARK   36  A    between atoms: _81  and  _82
REMARK   37  A    between atoms: _91  and  _93
REMARK   38  A    between atoms: _93  and  _94
REMARK   39  A    between atoms: _93  and  _96
REMARK   40  A    between atoms: _96  and  _97
REMARK   41  A    between atoms: _100  and  _102
REMARK   42  A    between atoms: _102  and  _103
REMARK   43  A    between atoms: _106  and  _108
REMARK   44  A    between atoms: _108  and  _109
REMARK   45  A    between atoms: _108  and  _111
REMARK   46  A    between atoms: _111  and  _112
REMARK   47  A    between atoms: _118  and  _120
REMARK   48  A    between atoms: _120  and  _121
REMARK   49  A    between atoms: _120  and  _123
REMARK   50  A    between atoms: _123  and  _124
REMARK   51  A    between atoms: _127  and  _129
REMARK   52  A    between atoms: _129  and  _130
REMARK   53  A    between atoms: _129  and  _132
REMARK   54  A    between atoms: _132  and  _133
REMARK   55  A    between atoms: _138  and  _139
REMARK   56  A    between atoms: _142  and  _143
REMARK   57  A    between atoms: _148  and  _150
REMARK   58  A    between atoms: _150  and  _151
REMARK   59  A    between atoms: _150  and  _153
REMARK   60  A    between atoms: _153  and  _154
REMARK   61  A    between atoms: _159  and  _161
REMARK   62  A    between atoms: _161  and  _162
REMARK   63  A    between atoms: _161  and  _164
REMARK   64  A    between atoms: _164  and  _165
REMARK   65  A    between atoms: _168  and  _170
REMARK   66  A    between atoms: _170  and  _171
REMARK   67  A    between atoms: _170  and  _173
REMARK   68  A    between atoms: _173  and  _174
REMARK   69  A    between atoms: _179  and  _181
REMARK   70  A    between atoms: _181  and  _182
REMARK   71  A    between atoms: _181  and  _184
REMARK   72  A    between atoms: _184  and  _185
REMARK   73  A    between atoms: _191  and  _193
REMARK   74  A    between atoms: _193  and  _194
REMARK   75  A    between atoms: _193  and  _196
REMARK   76  A    between atoms: _196  and  _197
REMARK   77  A    between atoms: _203  and  _205
REMARK   78  A    between atoms: _205  and  _206
REMARK   79  A    between atoms: _205  and  _208
REMARK   80  A    between atoms: _208  and  _209
REMARK   81  A    between atoms: _209  and  _210
REMARK   82  A    between atoms: _213  and  _215
REMARK   83  A    between atoms: _215  and  _216
REMARK   84  A    between atoms: _215  and  _218
REMARK   85  A    between atoms: _218  and  _219
REMARK   86  A    between atoms: _219  and  _220
REMARK   87  A    between atoms: _220  and  _221
REMARK   88  A    between atoms: _230  and  _232
REMARK   89  A    between atoms: _232  and  _233
REMARK   90  A    between atoms: _232  and  _235
REMARK   91  A    between atoms: _235  and  _236
REMARK   92  A    between atoms: _236  and  _237
REMARK   93  A    between atoms: _240  and  _242
REMARK   94  A    between atoms: _242  and  _243
REMARK   95  A    between atoms: _242  and  _245
REMARK   96  A    between atoms: _245  and  _246
REMARK   97  A    between atoms: _251  and  _253
REMARK   98  A    between atoms: _253  and  _254
REMARK   99  A    between atoms: _253  and  _256
REMARK  100  A    between atoms: _256  and  _257
REMARK  101  A    between atoms: _260  and  _262
REMARK  102  A    between atoms: _262  and  _263
REMARK  103  A    between atoms: _262  and  _265
REMARK  104  A    between atoms: _265  and  _266
REMARK  105  A    between atoms: _269  and  _271
REMARK  106  A    between atoms: _271  and  _272
REMARK  107  A    between atoms: _271  and  _274
REMARK  108  A    between atoms: _274  and  _275
REMARK  109  A    between atoms: _280  and  _282
REMARK  110  A    between atoms: _282  and  _283
REMARK  111  A    between atoms: _282  and  _285
REMARK  112  A    between atoms: _285  and  _286
REMARK  113  A    between atoms: _289  and  _291
REMARK  114  A    between atoms: _291  and  _292
REMARK  115  A    between atoms: _291  and  _294
REMARK  116  A    between atoms: _294  and  _295
REMARK  117  A    between atoms: _300  and  _302
REMARK  118  A    between atoms: _302  and  _303
REMARK  119  A    between atoms: _302  and  _305
REMARK  120  A    between atoms: _305  and  _306
REMARK  121  A    between atoms: _311  and  _313
REMARK  122  A    between atoms: _313  and  _314
REMARK  123  A    between atoms: _313  and  _316
REMARK  124  A    between atoms: _316  and  _317
REMARK  125  A    between atoms: _320  and  _322
REMARK  126  A    between atoms: _322  and  _323
REMARK  127  A    between atoms: _322  and  _325
REMARK  128  A    between atoms: _328  and  _330
REMARK  129  A    between atoms: _330  and  _331
REMARK  130  A    between atoms: _330  and  _333
REMARK  131  A    between atoms: _333  and  _334
REMARK  132  A    between atoms: _337  and  _339
REMARK  133  A    between atoms: _339  and  _340
REMARK  134  A    between atoms: _339  and  _342
REMARK  135  A    between atoms: _342  and  _343
REMARK  136  A    between atoms: _343  and  _344
REMARK  137  A    between atoms: _347  and  _349
REMARK  138  A    between atoms: _349  and  _350
REMARK  139  A    between atoms: _353  and  _355
REMARK  140  A    between atoms: _355  and  _356
REMARK  141  A    between atoms: _355  and  _358
REMARK  142  A    between atoms: _358  and  _359
REMARK  143  A    between atoms: _362  and  _364
REMARK  144  A    between atoms: _364  and  _365
REMARK  145  A    between atoms: _364  and  _367
REMARK  146  A    between atoms: _367  and  _368
REMARK  147  A    between atoms: _368  and  _369
REMARK  148  A    between atoms: _372  and  _374
REMARK  149  A    between atoms: _374  and  _375
REMARK  150  A    between atoms: _374  and  _377
REMARK  151  A    between atoms: _377  and  _378
REMARK  152  A    between atoms: _383  and  _385
REMARK  153  A    between atoms: _385  and  _386
REMARK  154  A    between atoms: _388  and  _390
REMARK  155  A    between atoms: _390  and  _391
REMARK  156  A    between atoms: _390  and  _393
REMARK  157  A    between atoms: _396  and  _398
REMARK  158  A    between atoms: _398  and  _399
REMARK  159  A    between atoms: _402  and  _404
REMARK  160  A    between atoms: _404  and  _405
REMARK  161  A    between atoms: _404  and  _407
REMARK  162  A    between atoms: _407  and  _408
REMARK  163  A    between atoms: _413  and  _415
REMARK  164  A    between atoms: _415  and  _416
REMARK  165  A    between atoms: _415  and  _418
REMARK  166  A    between atoms: _418  and  _419
REMARK  167  A    between atoms: _419  and  _420
REMARK  168  A    between atoms: _420  and  _421
REMARK  169  A    between atoms: _421  and  _422
REMARK  170  A    between atoms: _426  and  _428
REMARK  171  A    between atoms: _428  and  _429
REMARK  172  A    between atoms: _428  and  _431
REMARK  173  A    between atoms: _431  and  _432
REMARK  174  A    between atoms: _435  and  _437
REMARK  175  A    between atoms: _437  and  _438
REMARK  176  A    between atoms: _437  and  _440
REMARK  177  A    between atoms: _440  and  _441
REMARK  178  A    between atoms: _446  and  _448
REMARK  179  A    between atoms: _448  and  _449
REMARK  180  A    between atoms: _451  and  _453
REMARK  181  A    between atoms: _453  and  _454
REMARK  182  A    between atoms: _453  and  _456
REMARK  183  A    between atoms: _456  and  _457
REMARK  184  A    between atoms: _457  and  _458
REMARK  185  A    between atoms: _458  and  _459
REMARK  186  A    between atoms: _459  and  _460
REMARK  187  A    between atoms: _464  and  _466
REMARK  188  A    between atoms: _466  and  _467
REMARK  189  A    between atoms: _466  and  _469
REMARK  190  A    between atoms: _469  and  _470
REMARK  191  A    between atoms: _470  and  _471
REMARK  192  A    between atoms: _471  and  _472
REMARK  193  A    between atoms: _481  and  _483
REMARK  194  A    between atoms: _483  and  _484
REMARK  195  A    between atoms: _483  and  _486
REMARK  196  A    between atoms: _486  and  _487
REMARK  197  A    between atoms: _492  and  _494
REMARK  198  A    between atoms: _494  and  _495
REMARK  199  A    between atoms: _494  and  _497
REMARK  200  A    between atoms: _497  and  _498
REMARK  201  A    between atoms: _503  and  _504
REMARK  202  A    between atoms: _506  and  _508
REMARK  203  A    between atoms: _508  and  _509
REMARK  204  A    between atoms: _508  and  _511
REMARK  205  A    between atoms: _511  and  _512
REMARK  206  A    between atoms: _512  and  _513
REMARK  207  A    between atoms: _513  and  _514
REMARK  208  A    between atoms: _514  and  _515
REMARK  209  A    between atoms: _519  and  _521
REMARK  210  A    between atoms: _521  and  _522
REMARK  211  A    between atoms: _521  and  _524
REMARK  212  A    between atoms: _524  and  _525
REMARK  213  A    between atoms: _527  and  _529
REMARK  214  A    between atoms: _529  and  _530
REMARK  215  A    between atoms: _529  and  _532
REMARK  216  A    between atoms: _532  and  _533
REMARK  217  A    between atoms: _536  and  _538
REMARK  218  A    between atoms: _538  and  _539
REMARK  219  A    between atoms: _538  and  _541
REMARK  220  A    between atoms: _541  and  _542
REMARK  221  A    between atoms: _542  and  _543
REMARK  222  A    between atoms: _546  and  _548
REMARK  223  A    between atoms: _548  and  _549
REMARK  224  A    between atoms: _552  and  _554
REMARK  225  A    between atoms: _554  and  _555
REMARK  226  A    between atoms: _554  and  _557
REMARK  227  A    between atoms: _557  and  _558
REMARK  228  A    between atoms: _560  and  _562
REMARK  229  A    between atoms: _562  and  _563
REMARK  230  A    between atoms: _565  and  _567
REMARK  231  A    between atoms: _567  and  _568
REMARK  232  A    between atoms: _567  and  _570
REMARK  233  A    between atoms: _570  and  _571
REMARK  234  A    between atoms: _574  and  _576
REMARK  235  A    between atoms: _576  and  _577
REMARK  236  A    between atoms: _579  and  _581
REMARK  237  A    between atoms: _581  and  _582
REMARK  238  A    between atoms: _581  and  _584
REMARK  239  A    between atoms: _584  and  _585
REMARK  240  A    between atoms: _590  and  _592
REMARK  241  A    between atoms: _592  and  _593
REMARK  242  A    between atoms: _592  and  _595
REMARK  243  A    between atoms: _595  and  _596
REMARK  244  A    between atoms: _596  and  _597
REMARK  245  A    between atoms: _604  and  _605
REMARK  246  A    between atoms: _605  and  _621
REMARK  247  A    between atoms: _606  and  _608
REMARK  248  A    between atoms: _608  and  _609
REMARK  249  A    between atoms: _609  and  _610
REMARK  250  A    between atoms: _614  and  _616
REMARK  251  A    between atoms: _616  and  _617
REMARK  252  A    between atoms: _616  and  _624
REMARK  253  A    between atoms: _617  and  _618
REMARK  254  A    between atoms: _618  and  _619
REMARK  255  A    between atoms: _619  and  _620
REMARK  256  A    between atoms: _620  and  _621
REMARK  257  A    between atoms: _626  and  _628
REMARK  258  A    between atoms: _628  and  _629
REMARK  259  A    between atoms: _628  and  _631
REMARK  260  A    between atoms: _631  and  _632
REMARK  261  A    between atoms: _635  and  _637
REMARK  262  A    between atoms: _637  and  _638
REMARK  263  A    between atoms: _640  and  _642
REMARK  264  A    between atoms: _642  and  _643
REMARK  265  A    between atoms: _646  and  _648
REMARK  266  A    between atoms: _648  and  _649
REMARK  267  A    between atoms: _648  and  _651
REMARK  268  A    between atoms: _651  and  _652
REMARK  269  A    between atoms: _657  and  _658
REMARK                            x       y       z     vdW  Elec       q    Type
REMARK                         _______ _______ _______ _____ _____    ______ ____
ROOT
ATOM      1  CB  HIS A   1      32.227  32.528  25.113  0.00  0.00    +0.072 C 
ENDROOT
BRANCH   1   2
ATOM      2  CG  HIS A   1      32.998  32.039  26.288  0.00  0.00    +0.082 A 
ATOM      3  CD2 HIS A   1      32.653  31.207  27.298  0.00  0.00    +0.115 A 
ATOM      4  NE2 HIS A   1      33.753  31.084  28.110  0.00  0.00    -0.221 NA
ATOM      5  CE1 HIS A   1      34.739  31.809  27.612  0.00  0.00    +0.199 A 
ATOM      6  ND1 HIS A   1      34.311  32.393  26.509  0.00  0.00    -0.227 NA
ENDBRANCH   1   2
BRANCH   1   7
ATOM      7  CA  HIS A   1      31.828  33.996  25.201  0.00  0.00    +0.139 C 
BRANCH   7   8
ATOM      8  N   HIS A   1      30.412  34.106  25.519  0.00  0.00    -0.239 NA
ATOM      9  H   HIS A   1      29.725  33.999  24.746  0.00  0.00    +0.142 HD
ENDBRANCH   7   8
BRANCH   7  10
ATOM     10  C   HIS A   1      32.090  34.606  23.845  0.00  0.00    +0.224 C 
ATOM     11  O   HIS A   1      31.291  34.432  22.921  0.00  0.00    -0.287 OA
ENDBRANCH   7  10
ENDBRANCH   1   7
TORSDOF 4
REMARK  Name = ../refined-set-2016/2qrp/2qrp_pocket.pdb
REMARK  269 active torsions:
REMARK  status: ('A' for Active; 'I' for Inactive)
REMARK    1  A    between atoms: _1  and  _3
REMARK    2  A    between atoms: _3  and  _4
REMARK    3  A    between atoms: _3  and  _6
REMARK    4  A    between atoms: _6  and  _7
REMARK    5  A    between atoms: _12  and  _13
REMARK    6  A    between atoms: _15  and  _17
REMARK    7  A    between atoms: _17  and  _18
REMARK    8  A    between atoms: _17  and  _20
REMARK    9  A    between atoms: _20  and  _21
REMARK   10  A    between atoms: _24  and  _26
REMARK   11  A    between atoms: _26  and  _27
REMARK   12  A    between atoms: _26  and  _29
REMARK   13  A    between atoms: _29  and  _30
REMARK   14  A    between atoms: _30  and  _31
REMARK   15  A    between atoms: _34  and  _36
REMARK   16  A    between atoms: _36  and  _37
REMARK   17  A    between atoms: _39  and  _41
REMARK   18  A    between atoms: _41  and  _42
REMARK   19  A    between atoms: _41  and  _44
REMARK   20  A    between atoms: _44  and  _45
REMARK   21  A    between atoms: _50  and  _52
REMARK   22  A    between atoms: _52  and  _53
REMARK   23  A    between atoms: _55  and  _57
REMARK   24  A    between atoms: _57  and  _58
REMARK   25  A    between atoms: _60  and  _62
REMARK   26  A    between atoms: _62  and  _63
REMARK   27  A    between atoms: _62  and  _65
REMARK   28  A    between atoms: _65  and  _66
REMARK   29  A    between atoms: _69  and  _71
REMARK   30  A    between atoms: _71  and  _72
REMARK   31  A    between atoms: _74  and  _76
REMARK   32  A    between atoms: _76  and  _77
REMARK   33  A    between atoms: _76  and  _79
REMARK   34  A    between atoms: _79  and  _80
REMARK   35  A    between atoms: _80  and  _81
REMARK   36  A    between atoms: _81  and  _82
REMARK   37  A    between atoms: _91  and  _93
REMARK   38  A    between atoms: _93  and  _94
REMARK   39  A    between atoms: _93  and  _96
REMARK   40  A    between atoms: _96  and  _97
REMARK   41  A    between atoms: _100  and  _102
REMARK   42  A    between atoms: _102  and  _103
REMARK   43  A    between atoms: _106  and  _108
REMARK   44  A    between atoms: _108  and  _109
REMARK   45  A    between atoms: _108  and  _111
REMARK   46  A    between atoms: _111  and  _112
REMARK   47  A    between atoms: _118  and  _120
REMARK   48  A    between atoms: _120  and  _121
REMARK   49  A    between atoms: _120  and  _123
REMARK   50  A    between atoms: _123  and  _124
REMARK   51  A    between atoms: _127  and  _129
REMARK   52  A    between atoms: _129  and  _130
REMARK   53  A    between atoms: _129  and  _132
REMARK   54  A    between atoms: _132  and  _133
REMARK   55  A    between atoms: _138  and  _139
REMARK   56  A    between atoms: _142  and  _143
REMARK   57  A    between atoms: _148  and  _150
REMARK   58  A    between atoms: _150  and  _151
REMARK   59  A    between atoms: _150  and  _153
REMARK   60  A    between atoms: _153  and  _154
REMARK   61  A    between atoms: _159  and  _161
REMARK   62  A    between atoms: _161  and  _162
REMARK   63  A    between atoms: _161  and  _164
REMARK   64  A    between atoms: _164  and  _165
REMARK   65  A    between atoms: _168  and  _170
REMARK   66  A    between atoms: _170  and  _171
REMARK   67  A    between atoms: _170  and  _173
REMARK   68  A    between atoms: _173  and  _174
REMARK   69  A    between atoms: _179  and  _181
REMARK   70  A    between atoms: _181  and  _182
REMARK   71  A    between atoms: _181  and  _184
REMARK   72  A    between atoms: _184  and  _185
REMARK   73  A    between atoms: _191  and  _193
REMARK   74  A    between atoms: _193  and  _194
REMARK   75  A    between atoms: _193  and  _196
REMARK   76  A    between atoms: _196  and  _197
REMARK   77  A    between atoms: _203  and  _205
REMARK   78  A    between atoms: _205  and  _206
REMARK   79  A    between atoms: _205  and  _208
REMARK   80  A    between atoms: _208  and  _209
REMARK   81  A    between atoms: _209  and  _210
REMARK   82  A    between atoms: _213  and  _215
REMARK   83  A    between atoms: _215  and  _216
REMARK   84  A    between atoms: _215  and  _218
REMARK   85  A    between atoms: _218  and  _219
REMARK   86  A    between atoms: _219  and  _220
REMARK   87  A    between atoms: _220  and  _221
REMARK   88  A    between atoms: _230  and  _232
REMARK   89  A    between atoms: _232  and  _233
REMARK   90  A    between atoms: _232  and  _235
REMARK   91  A    between atoms: _235  and  _236
REMARK   92  A    between atoms: _236  and  _237
REMARK   93  A    between atoms: _240  and  _242
REMARK   94  A    between atoms: _242  and  _243
REMARK   95  A    between atoms: _242  and  _245
REMARK   96  A    between atoms: _245  and  _246
REMARK   97  A    between atoms: _251  and  _253
REMARK   98  A    between atoms: _253  and  _254
REMARK   99  A    between atoms: _253  and  _256
REMARK  100  A    between atoms: _256  and  _257
REMARK  101  A    between atoms: _260  and  _262
REMARK  102  A    between atoms: _262  and  _263
REMARK  103  A    between atoms: _262  and  _265
REMARK  104  A    between atoms: _265  and  _266
REMARK  105  A    between atoms: _269  and  _271
REMARK  106  A    between atoms: _271  and  _272
REMARK  107  A    between atoms: _271  and  _274
REMARK  108  A    between atoms: _274  and  _275
REMARK  109  A    between atoms: _280  and  _282
REMARK  110  A    between atoms: _282  and  _283
REMARK  111  A    between atoms: _282  and  _285
REMARK  112  A    between atoms: _285  and  _286
REMARK  113  A    between atoms: _289  and  _291
REMARK  114  A    between atoms: _291  and  _292
REMARK  115  A    between atoms: _291  and  _294
REMARK  116  A    between atoms: _294  and  _295
REMARK  117  A    between atoms: _300  and  _302
REMARK  118  A    between atoms: _302  and  _303
REMARK  119  A    between atoms: _302  and  _305
REMARK  120  A    between atoms: _305  and  _306
REMARK  121  A    between atoms: _311  and  _313
REMARK  122  A    between atoms: _313  and  _314
REMARK  123  A    between atoms: _313  and  _316
REMARK  124  A    between atoms: _316  and  _317
REMARK  125  A    between atoms: _320  and  _322
REMARK  126  A    between atoms: _322  and  _323
REMARK  127  A    between atoms: _322  and  _325
REMARK  128  A    between atoms: _328  and  _330
REMARK  129  A    between atoms: _330  and  _331
REMARK  130  A    between atoms: _330  and  _333
REMARK  131  A    between atoms: _333  and  _334
REMARK  132  A    between atoms: _337  and  _339
REMARK  133  A    between atoms: _339  and  _340
REMARK  134  A    between atoms: _339  and  _342
REMARK  135  A    between atoms: _342  and  _343
REMARK  136  A    between atoms: _343  and  _344
REMARK  137  A    between atoms: _347  and  _349
REMARK  138  A    between atoms: _349  and  _350
REMARK  139  A    between atoms: _353  and  _355
REMARK  140  A    between atoms: _355  and  _356
REMARK  141  A    between atoms: _355  and  _358
REMARK  142  A    between atoms: _358  and  _359
REMARK  143  A    between atoms: _362  and  _364
REMARK  144  A    between atoms: _364  and  _365
REMARK  145  A    between atoms: _364  and  _367
REMARK  146  A    between atoms: _367  and  _368
REMARK  147  A    between atoms: _368  and  _369
REMARK  148  A    between atoms: _372  and  _374
REMARK  149  A    between atoms: _374  and  _375
REMARK  150  A    between atoms: _374  and  _377
REMARK  151  A    between atoms: _377  and  _378
REMARK  152  A    between atoms: _383  and  _385
REMARK  153  A    between atoms: _385  and  _386
REMARK  154  A    between atoms: _388  and  _390
REMARK  155  A    between atoms: _390  and  _391
REMARK  156  A    between atoms: _390  and  _393
REMARK  157  A    between atoms: _396  and  _398
REMARK  158  A    between atoms: _398  and  _399
REMARK  159  A    between atoms: _402  and  _404
REMARK  160  A    between atoms: _404  and  _405
REMARK  161  A    between atoms: _404  and  _407
REMARK  162  A    between atoms: _407  and  _408
REMARK  163  A    between atoms: _413  and  _415
REMARK  164  A    between atoms: _415  and  _416
REMARK  165  A    between atoms: _415  and  _418
REMARK  166  A    between atoms: _418  and  _419
REMARK  167  A    between atoms: _419  and  _420
REMARK  168  A    between atoms: _420  and  _421
REMARK  169  A    between atoms: _421  and  _422
REMARK  170  A    between atoms: _426  and  _428
REMARK  171  A    between atoms: _428  and  _429
REMARK  172  A    between atoms: _428  and  _431
REMARK  173  A    between atoms: _431  and  _432
REMARK  174  A    between atoms: _435  and  _437
REMARK  175  A    between atoms: _437  and  _438
REMARK  176  A    between atoms: _437  and  _440
REMARK  177  A    between atoms: _440  and  _441
REMARK  178  A    between atoms: _446  and  _448
REMARK  179  A    between atoms: _448  and  _449
REMARK  180  A    between atoms: _451  and  _453
REMARK  181  A    between atoms: _453  and  _454
REMARK  182  A    between atoms: _453  and  _456
REMARK  183  A    between atoms: _456  and  _457
REMARK  184  A    between atoms: _457  and  _458
REMARK  185  A    between atoms: _458  and  _459
REMARK  186  A    between atoms: _459  and  _460
REMARK  187  A    between atoms: _464  and  _466
REMARK  188  A    between atoms: _466  and  _467
REMARK  189  A    between atoms: _466  and  _469
REMARK  190  A    between atoms: _469  and  _470
REMARK  191  A    between atoms: _470  and  _471
REMARK  192  A    between atoms: _471  and  _472
REMARK  193  A    between atoms: _481  and  _483
REMARK  194  A    between atoms: _483  and  _484
REMARK  195  A    between atoms: _483  and  _486
REMARK  196  A    between atoms: _486  and  _487
REMARK  197  A    between atoms: _492  and  _494
REMARK  198  A    between atoms: _494  and  _495
REMARK  199  A    between atoms: _494  and  _497
REMARK  200  A    between atoms: _497  and  _498
REMARK  201  A    between atoms: _503  and  _504
REMARK  202  A    between atoms: _506  and  _508
REMARK  203  A    between atoms: _508  and  _509
REMARK  204  A    between atoms: _508  and  _511
REMARK  205  A    between atoms: _511  and  _512
REMARK  206  A    between atoms: _512  and  _513
REMARK  207  A    between atoms: _513  and  _514
REMARK  208  A    between atoms: _514  and  _515
REMARK  209  A    between atoms: _519  and  _521
REMARK  210  A    between atoms: _521  and  _522
REMARK  211  A    between atoms: _521  and  _524
REMARK  212  A    between atoms: _524  and  _525
REMARK  213  A    between atoms: _527  and  _529
REMARK  214  A    between atoms: _529  and  _530
REMARK  215  A    between atoms: _529  and  _532
REMARK  216  A    between atoms: _532  and  _533
REMARK  217  A    between atoms: _536  and  _538
REMARK  218  A    between atoms: _538  and  _539
REMARK  219  A    between atoms: _538  and  _541
REMARK  220  A    between atoms: _541  and  _542
REMARK  221  A    between atoms: _542  and  _543
REMARK  222  A    between atoms: _546  and  _548
REMARK  223  A    between atoms: _548  and  _549
REMARK  224  A    between atoms: _552  and  _554
REMARK  225  A    between atoms: _554  and  _555
REMARK  226  A    between atoms: _554  and  _557
REMARK  227  A    between atoms: _557  and  _558
REMARK  228  A    between atoms: _560  and  _562
REMARK  229  A    between atoms: _562  and  _563
REMARK  230  A    between atoms: _565  and  _567
REMARK  231  A    between atoms: _567  and  _568
REMARK  232  A    between atoms: _567  and  _570
REMARK  233  A    between atoms: _570  and  _571
REMARK  234  A    between atoms: _574  and  _576
REMARK  235  A    between atoms: _576  and  _577
REMARK  236  A    between atoms: _579  and  _581
REMARK  237  A    between atoms: _581  and  _582
REMARK  238  A    between atoms: _581  and  _584
REMARK  239  A    between atoms: _584  and  _585
REMARK  240  A    between atoms: _590  and  _592
REMARK  241  A    between atoms: _592  and  _593
REMARK  242  A    between atoms: _592  and  _595
REMARK  243  A    between atoms: _595  and  _596
REMARK  244  A    between atoms: _596  and  _597
REMARK  245  A    between atoms: _604  and  _605
REMARK  246  A    between atoms: _605  and  _621
REMARK  247  A    between atoms: _606  and  _608
REMARK  248  A    between atoms: _608  and  _609
REMARK  249  A    between atoms: _609  and  _610
REMARK  250  A    between atoms: _614  and  _616
REMARK  251  A    between atoms: _616  and  _617
REMARK  252  A    between atoms: _616  and  _624
REMARK  253  A    between atoms: _617  and  _618
REMARK  254  A    between atoms: _618  and  _619
REMARK  255  A    between atoms: _619  and  _620
REMARK  256  A    between atoms: _620  and  _621
REMARK  257  A    between atoms: _626  and  _628
REMARK  258  A    between atoms: _628  and  _629
REMARK  259  A    between atoms: _628  and  _631
REMARK  260  A    between atoms: _631  and  _632
REMARK  261  A    between atoms: _635  and  _637
REMARK  262  A    between atoms: _637  and  _638
REMARK  263  A    between atoms: _640  and  _642
REMARK  264  A    between atoms: _642  and  _643
REMARK  265  A    between atoms: _646  and  _648
REMARK  266  A    between atoms: _648  and  _649
REMARK  267  A    between atoms: _648  and  _651
REMARK  268  A    between atoms: _651  and  _652
REMARK  269  A    between atoms: _657  and  _658
REMARK                            x       y       z     vdW  Elec       q    Type
REMARK                         _______ _______ _______ _____ _____    ______ ____
ROOT
ATOM      1  C   TYR A   1      33.068  31.897  20.245  0.00  0.00    +0.239 C 
ATOM      2  N   LYS A   2      32.046  31.978  21.094  0.00  0.00    -0.298 N 
ATOM      3  H   LYS A   2      32.199  32.417  22.024  0.00  0.00    +0.150 HD
ATOM      4  O   TYR A   1      32.982  31.397  19.125  0.00  0.00    -0.274 OA
ENDROOT
BRANCH   1   5
ATOM      5  CA  TYR A   1      34.401  32.460  20.726  0.00  0.00    +0.149 C 
BRANCH   5   6
ATOM      6  N   TYR A   1      34.253  33.541  21.709  0.00  0.00    -0.238 NA
ATOM      7  H   TYR A   1      34.563  33.396  22.691  0.00  0.00    +0.142 HD
ENDBRANCH   5   6
BRANCH   5   8
ATOM      8  CB  TYR A   1      35.345  31.347  21.209  0.00  0.00    +0.053 C 
BRANCH   8   9
ATOM      9  CG  TYR A   1      34.741  30.234  22.049  0.00  0.00    -0.020 A 
ATOM     10  CD2 TYR A   1      34.860  30.242  23.436  0.00  0.00    -0.001 A 
ATOM     11  CE2 TYR A   1      34.330  29.205  24.210  0.00  0.00    +0.036 A 
ATOM     12  CZ  TYR A   1      33.686  28.145  23.589  0.00  0.00    +0.134 A 
ATOM     13  CE1 TYR A   1      33.569  28.107  22.208  0.00  0.00    +0.036 A 
ATOM     14  CD1 TYR A   1      34.103  29.142  21.447  0.00  0.00    -0.001 A 
BRANCH  12  15
ATOM     15  OH  TYR A   1      33.170  27.114  24.346  0.00  0.00    -0.506 OA
ATOM     16  HH  TYR A   1      32.748  26.447  23.749  0.00  0.00    +0.292 HD
ENDBRANCH  12  15
ENDBRANCH   8   9
ENDBRANCH   5   8
ENDBRANCH   1   5
BRANCH   2  17
ATOM     17  CA  LYS A   2      30.708  31.468  20.762  0.00  0.00    +0.137 C 
BRANCH  17  18
ATOM     18  C   LYS A   2      29.939  32.447  19.866  0.00  0.00    +0.227 C 
ATOM     19  O   LYS A   2      28.895  32.110  19.297  0.00  0.00    -0.286 OA
ENDBRANCH  17  18
BRANCH  17  20
ATOM     20  CB  LYS A   2      29.922  31.173  22.038  0.00  0.00    +0.028 C 
BRANCH  20  21
ATOM     21  CG  LYS A   2      30.417  29.950  22.807  0.00  0.00    -0.000 C 
BRANCH  21  22
ATOM     22  CD  LYS A   2      29.643  29.804  24.122  0.00  0.00    -0.024 C 
BRANCH  22  23
ATOM     23  CE  LYS A   2      30.223  28.733  25.042  0.00  0.00    -0.086 C 
BRANCH  23  24
ATOM     24  NZ  LYS A   2      29.922  27.340  24.570  0.00  0.00    +0.380 N 
ATOM     25  HZ1 LYS A   2      30.339  26.654  25.231  0.00  0.00    -0.089 HD
ATOM     26  HZ2 LYS A   2      28.892  27.204  24.531  0.00  0.00    -0.089 HD
ATOM     27  HZ3 LYS A   2      30.328  27.201  23.623  0.00  0.00    -0.089 HD
ENDBRANCH  23  24
ENDBRANCH  22  23
ENDBRANCH  21  22
ENDBRANCH  20  21
ENDBRANCH  17  20
ENDBRANCH   2  17
TORSDOF 12
REMARK  Name = ../refined-set-2016/2qrp/2qrp_pocket.pdb
REMARK  269 active torsions:
REMARK  status: ('A' for Active; 'I' for Inactive)
REMARK    1  A    between atoms: _1  and  _3
REMARK    2  A    between atoms: _3  and  _4
REMARK    3  A    between atoms: _3  and  _6
REMARK    4  A    between atoms: _6  and  _7
REMARK    5  A    between atoms: _12  and  _13
REMARK    6  A    between atoms: _15  and  _17
REMARK    7  A    between atoms: _17  and  _18
REMARK    8  A    between atoms: _17  and  _20
REMARK    9  A    between atoms: _20  and  _21
REMARK   10  A    between atoms: _24  and  _26
REMARK   11  A    between atoms: _26  and  _27
REMARK   12  A    between atoms: _26  and  _29
REMARK   13  A    between atoms: _29  and  _30
REMARK   14  A    between atoms: _30  and  _31
REMARK   15  A    between atoms: _34  and  _36
REMARK   16  A    between atoms: _36  and  _37
REMARK   17  A    between atoms: _39  and  _41
REMARK   18  A    between atoms: _41  and  _42
REMARK   19  A    between atoms: _41  and  _44
REMARK   20  A    between atoms: _44  and  _45
REMARK   21  A    between atoms: _50  and  _52
REMARK   22  A    between atoms: _52  and  _53
REMARK   23  A    between atoms: _55  and  _57
REMARK   24  A    between atoms: _57  and  _58
REMARK   25  A    between atoms: _60  and  _62
REMARK   26  A    between atoms: _62  and  _63
REMARK   27  A    between atoms: _62  and  _65
REMARK   28  A    between atoms: _65  and  _66
REMARK   29  A    between atoms: _69  and  _71
REMARK   30  A    between atoms: _71  and  _72
REMARK   31  A    between atoms: _74  and  _76
REMARK   32  A    between atoms: _76  and  _77
REMARK   33  A    between atoms: _76  and  _79
REMARK   34  A    between atoms: _79  and  _80
REMARK   35  A    between atoms: _80  and  _81
REMARK   36  A    between atoms: _81  and  _82
REMARK   37  A    between atoms: _91  and  _93
REMARK   38  A    between atoms: _93  and  _94
REMARK   39  A    between atoms: _93  and  _96
REMARK   40  A    between atoms: _96  and  _97
REMARK   41  A    between atoms: _100  and  _102
REMARK   42  A    between atoms: _102  and  _103
REMARK   43  A    between atoms: _106  and  _108
REMARK   44  A    between atoms: _108  and  _109
REMARK   45  A    between atoms: _108  and  _111
REMARK   46  A    between atoms: _111  and  _112
REMARK   47  A    between atoms: _118  and  _120
REMARK   48  A    between atoms: _120  and  _121
REMARK   49  A    between atoms: _120  and  _123
REMARK   50  A    between atoms: _123  and  _124
REMARK   51  A    between atoms: _127  and  _129
REMARK   52  A    between atoms: _129  and  _130
REMARK   53  A    between atoms: _129  and  _132
REMARK   54  A    between atoms: _132  and  _133
REMARK   55  A    between atoms: _138  and  _139
REMARK   56  A    between atoms: _142  and  _143
REMARK   57  A    between atoms: _148  and  _150
REMARK   58  A    between atoms: _150  and  _151
REMARK   59  A    between atoms: _150  and  _153
REMARK   60  A    between atoms: _153  and  _154
REMARK   61  A    between atoms: _159  and  _161
REMARK   62  A    between atoms: _161  and  _162
REMARK   63  A    between atoms: _161  and  _164
REMARK   64  A    between atoms: _164  and  _165
REMARK   65  A    between atoms: _168  and  _170
REMARK   66  A    between atoms: _170  and  _171
REMARK   67  A    between atoms: _170  and  _173
REMARK   68  A    between atoms: _173  and  _174
REMARK   69  A    between atoms: _179  and  _181
REMARK   70  A    between atoms: _181  and  _182
REMARK   71  A    between atoms: _181  and  _184
REMARK   72  A    between atoms: _184  and  _185
REMARK   73  A    between atoms: _191  and  _193
REMARK   74  A    between atoms: _193  and  _194
REMARK   75  A    between atoms: _193  and  _196
REMARK   76  A    between atoms: _196  and  _197
REMARK   77  A    between atoms: _203  and  _205
REMARK   78  A    between atoms: _205  and  _206
REMARK   79  A    between atoms: _205  and  _208
REMARK   80  A    between atoms: _208  and  _209
REMARK   81  A    between atoms: _209  and  _210
REMARK   82  A    between atoms: _213  and  _215
REMARK   83  A    between atoms: _215  and  _216
REMARK   84  A    between atoms: _215  and  _218
REMARK   85  A    between atoms: _218  and  _219
REMARK   86  A    between atoms: _219  and  _220
REMARK   87  A    between atoms: _220  and  _221
REMARK   88  A    between atoms: _230  and  _232
REMARK   89  A    between atoms: _232  and  _233
REMARK   90  A    between atoms: _232  and  _235
REMARK   91  A    between atoms: _235  and  _236
REMARK   92  A    between atoms: _236  and  _237
REMARK   93  A    between atoms: _240  and  _242
REMARK   94  A    between atoms: _242  and  _243
REMARK   95  A    between atoms: _242  and  _245
REMARK   96  A    between atoms: _245  and  _246
REMARK   97  A    between atoms: _251  and  _253
REMARK   98  A    between atoms: _253  and  _254
REMARK   99  A    between atoms: _253  and  _256
REMARK  100  A    between atoms: _256  and  _257
REMARK  101  A    between atoms: _260  and  _262
REMARK  102  A    between atoms: _262  and  _263
REMARK  103  A    between atoms: _262  and  _265
REMARK  104  A    between atoms: _265  and  _266
REMARK  105  A    between atoms: _269  and  _271
REMARK  106  A    between atoms: _271  and  _272
REMARK  107  A    between atoms: _271  and  _274
REMARK  108  A    between atoms: _274  and  _275
REMARK  109  A    between atoms: _280  and  _282
REMARK  110  A    between atoms: _282  and  _283
REMARK  111  A    between atoms: _282  and  _285
REMARK  112  A    between atoms: _285  and  _286
REMARK  113  A    between atoms: _289  and  _291
REMARK  114  A    between atoms: _291  and  _292
REMARK  115  A    between atoms: _291  and  _294
REMARK  116  A    between atoms: _294  and  _295
REMARK  117  A    between atoms: _300  and  _302
REMARK  118  A    between atoms: _302  and  _303
REMARK  119  A    between atoms: _302  and  _305
REMARK  120  A    between atoms: _305  and  _306
REMARK  121  A    between atoms: _311  and  _313
REMARK  122  A    between atoms: _313  and  _314
REMARK  123  A    between atoms: _313  and  _316
REMARK  124  A    between atoms: _316  and  _317
REMARK  125  A    between atoms: _320  and  _322
REMARK  126  A    between atoms: _322  and  _323
REMARK  127  A    between atoms: _322  and  _325
REMARK  128  A    between atoms: _328  and  _330
REMARK  129  A    between atoms: _330  and  _331
REMARK  130  A    between atoms: _330  and  _333
REMARK  131  A    between atoms: _333  and  _334
REMARK  132  A    between atoms: _337  and  _339
REMARK  133  A    between atoms: _339  and  _340
REMARK  134  A    between atoms: _339  and  _342
REMARK  135  A    between atoms: _342  and  _343
REMARK  136  A    between atoms: _343  and  _344
REMARK  137  A    between atoms: _347  and  _349
REMARK  138  A    between atoms: _349  and  _350
REMARK  139  A    between atoms: _353  and  _355
REMARK  140  A    between atoms: _355  and  _356
REMARK  141  A    between atoms: _355  and  _358
REMARK  142  A    between atoms: _358  and  _359
REMARK  143  A    between atoms: _362  and  _364
REMARK  144  A    between atoms: _364  and  _365
REMARK  145  A    between atoms: _364  and  _367
REMARK  146  A    between atoms: _367  and  _368
REMARK  147  A    between atoms: _368  and  _369
REMARK  148  A    between atoms: _372  and  _374
REMARK  149  A    between atoms: _374  and  _375
REMARK  150  A    between atoms: _374  and  _377
REMARK  151  A    between atoms: _377  and  _378
REMARK  152  A    between atoms: _383  and  _385
REMARK  153  A    between atoms: _385  and  _386
REMARK  154  A    between atoms: _388  and  _390
REMARK  155  A    between atoms: _390  and  _391
REMARK  156  A    between atoms: _390  and  _393
REMARK  157  A    between atoms: _396  and  _398
REMARK  158  A    between atoms: _398  and  _399
REMARK  159  A    between atoms: _402  and  _404
REMARK  160  A    between atoms: _404  and  _405
REMARK  161  A    between atoms: _404  and  _407
REMARK  162  A    between atoms: _407  and  _408
REMARK  163  A    between atoms: _413  and  _415
REMARK  164  A    between atoms: _415  and  _416
REMARK  165  A    between atoms: _415  and  _418
REMARK  166  A    between atoms: _418  and  _419
REMARK  167  A    between atoms: _419  and  _420
REMARK  168  A    between atoms: _420  and  _421
REMARK  169  A    between atoms: _421  and  _422
REMARK  170  A    between atoms: _426  and  _428
REMARK  171  A    between atoms: _428  and  _429
REMARK  172  A    between atoms: _428  and  _431
REMARK  173  A    between atoms: _431  and  _432
REMARK  174  A    between atoms: _435  and  _437
REMARK  175  A    between atoms: _437  and  _438
REMARK  176  A    between atoms: _437  and  _440
REMARK  177  A    between atoms: _440  and  _441
REMARK  178  A    between atoms: _446  and  _448
REMARK  179  A    between atoms: _448  and  _449
REMARK  180  A    between atoms: _451  and  _453
REMARK  181  A    between atoms: _453  and  _454
REMARK  182  A    between atoms: _453  and  _456
REMARK  183  A    between atoms: _456  and  _457
REMARK  184  A    between atoms: _457  and  _458
REMARK  185  A    between atoms: _458  and  _459
REMARK  186  A    between atoms: _459  and  _460
REMARK  187  A    between atoms: _464  and  _466
REMARK  188  A    between atoms: _466  and  _467
REMARK  189  A    between atoms: _466  and  _469
REMARK  190  A    between atoms: _469  and  _470
REMARK  191  A    between atoms: _470  and  _471
REMARK  192  A    between atoms: _471  and  _472
REMARK  193  A    between atoms: _481  and  _483
REMARK  194  A    between atoms: _483  and  _484
REMARK  195  A    between atoms: _483  and  _486
REMARK  196  A    between atoms: _486  and  _487
REMARK  197  A    between atoms: _492  and  _494
REMARK  198  A    between atoms: _494  and  _495
REMARK  199  A    between atoms: _494  and  _497
REMARK  200  A    between atoms: _497  and  _498
REMARK  201  A    between atoms: _503  and  _504
REMARK  202  A    between atoms: _506  and  _508
REMARK  203  A    between atoms: _508  and  _509
REMARK  204  A    between atoms: _508  and  _511
REMARK  205  A    between atoms: _511  and  _512
REMARK  206  A    between atoms: _512  and  _513
REMARK  207  A    between atoms: _513  and  _514
REMARK  208  A    between atoms: _514  and  _515
REMARK  209  A    between atoms: _519  and  _521
REMARK  210  A    between atoms: _521  and  _522
REMARK  211  A    between atoms: _521  and  _524
REMARK  212  A    between atoms: _524  and  _525
REMARK  213  A    between atoms: _527  and  _529
REMARK  214  A    between atoms: _529  and  _530
REMARK  215  A    between atoms: _529  and  _532
REMARK  216  A    between atoms: _532  and  _533
REMARK  217  A    between atoms: _536  and  _538
REMARK  218  A    between atoms: _538  and  _539
REMARK  219  A    between atoms: _538  and  _541
REMARK  220  A    between atoms: _541  and  _542
REMARK  221  A    between atoms: _542  and  _543
REMARK  222  A    between atoms: _546  and  _548
REMARK  223  A    between atoms: _548  and  _549
REMARK  224  A    between atoms: _552  and  _554
REMARK  225  A    between atoms: _554  and  _555
REMARK  226  A    between atoms: _554  and  _557
REMARK  227  A    between atoms: _557  and  _558
REMARK  228  A    between atoms: _560  and  _562
REMARK  229  A    between atoms: _562  and  _563
REMARK  230  A    between atoms: _565  and  _567
REMARK  231  A    between atoms: _567  and  _568
REMARK  232  A    between atoms: _567  and  _570
REMARK  233  A    between atoms: _570  and  _571
REMARK  234  A    between atoms: _574  and  _576
REMARK  235  A    between atoms: _576  and  _577
REMARK  236  A    between atoms: _579  and  _581
REMARK  237  A    between atoms: _581  and  _582
REMARK  238  A    between atoms: _581  and  _584
REMARK  239  A    between atoms: _584  and  _585
REMARK  240  A    between atoms: _590  and  _592
REMARK  241  A    between atoms: _592  and  _593
REMARK  242  A    between atoms: _592  and  _595
REMARK  243  A    between atoms: _595  and  _596
REMARK  244  A    between atoms: _596  and  _597
REMARK  245  A    between atoms: _604  and  _605
REMARK  246  A    between atoms: _605  and  _621
REMARK  247  A    between atoms: _606  and  _608
REMARK  248  A    between atoms: _608  and  _609
REMARK  249  A    between atoms: _609  and  _610
REMARK  250  A    between atoms: _614  and  _616
REMARK  251  A    between atoms: _616  and  _617
REMARK  252  A    between atoms: _616  and  _624
REMARK  253  A    between atoms: _617  and  _618
REMARK  254  A    between atoms: _618  and  _619
REMARK  255  A    between atoms: _619  and  _620
REMARK  256  A    between atoms: _620  and  _621
REMARK  257  A    between atoms: _626  and  _628
REMARK  258  A    between atoms: _628  and  _629
REMARK  259  A    between atoms: _628  and  _631
REMARK  260  A    between atoms: _631  and  _632
REMARK  261  A    between atoms: _635  and  _637
REMARK  262  A    between atoms: _637  and  _638
REMARK  263  A    between atoms: _640  and  _642
REMARK  264  A    between atoms: _642  and  _643
REMARK  265  A    between atoms: _646  and  _648
REMARK  266  A    between atoms: _648  and  _649
REMARK  267  A    between atoms: _648  and  _651
REMARK  268  A    between atoms: _651  and  _652
REMARK  269  A    between atoms: _657  and  _658
REMARK                            x       y       z     vdW  Elec       q    Type
REMARK                         _______ _______ _______ _____ _____    ______ ____
ROOT
ATOM      1  CA  SER A   1      31.402  29.388  17.159  0.00  0.00    +0.163 C 
ENDROOT
BRANCH   1   2
ATOM      2  N   SER A   1      30.019  29.215  16.722  0.00  0.00    -0.237 NA
ATOM      3  H   SER A   1      29.491  28.383  17.054  0.00  0.00    +0.142 HD
ENDBRANCH   1   2
BRANCH   1   4
ATOM      4  C   SER A   1      32.340  29.425  15.958  0.00  0.00    +0.227 C 
ATOM      5  O   SER A   1      32.074  28.789  14.944  0.00  0.00    -0.287 OA
ENDBRANCH   1   4
BRANCH   1   6
ATOM      6  CB  SER A   1      31.800  28.242  18.090  0.00  0.00    +0.162 C 
BRANCH   6   7
ATOM      7  OG  SER A   1      31.515  26.981  17.494  0.00  0.00    -0.380 OA
ATOM      8  H   SER A   1      30.545  26.917  17.307  0.00  0.00    +0.211 HD
ENDBRANCH   6   7
ENDBRANCH   1   6
TORSDOF 4
REMARK  Name = ../refined-set-2016/2qrp/2qrp_pocket.pdb
REMARK  269 active torsions:
REMARK  status: ('A' for Active; 'I' for Inactive)
REMARK    1  A    between atoms: _1  and  _3
REMARK    2  A    between atoms: _3  and  _4
REMARK    3  A    between atoms: _3  and  _6
REMARK    4  A    between atoms: _6  and  _7
REMARK    5  A    between atoms: _12  and  _13
REMARK    6  A    between atoms: _15  and  _17
REMARK    7  A    between atoms: _17  and  _18
REMARK    8  A    between atoms: _17  and  _20
REMARK    9  A    between atoms: _20  and  _21
REMARK   10  A    between atoms: _24  and  _26
REMARK   11  A    between atoms: _26  and  _27
REMARK   12  A    between atoms: _26  and  _29
REMARK   13  A    between atoms: _29  and  _30
REMARK   14  A    between atoms: _30  and  _31
REMARK   15  A    between atoms: _34  and  _36
REMARK   16  A    between atoms: _36  and  _37
REMARK   17  A    between atoms: _39  and  _41
REMARK   18  A    between atoms: _41  and  _42
REMARK   19  A    between atoms: _41  and  _44
REMARK   20  A    between atoms: _44  and  _45
REMARK   21  A    between atoms: _50  and  _52
REMARK   22  A    between atoms: _52  and  _53
REMARK   23  A    between atoms: _55  and  _57
REMARK   24  A    between atoms: _57  and  _58
REMARK   25  A    between atoms: _60  and  _62
REMARK   26  A    between atoms: _62  and  _63
REMARK   27  A    between atoms: _62  and  _65
REMARK   28  A    between atoms: _65  and  _66
REMARK   29  A    between atoms: _69  and  _71
REMARK   30  A    between atoms: _71  and  _72
REMARK   31  A    between atoms: _74  and  _76
REMARK   32  A    between atoms: _76  and  _77
REMARK   33  A    between atoms: _76  and  _79
REMARK   34  A    between atoms: _79  and  _80
REMARK   35  A    between atoms: _80  and  _81
REMARK   36  A    between atoms: _81  and  _82
REMARK   37  A    between atoms: _91  and  _93
REMARK   38  A    between atoms: _93  and  _94
REMARK   39  A    between atoms: _93  and  _96
REMARK   40  A    between atoms: _96  and  _97
REMARK   41  A    between atoms: _100  and  _102
REMARK   42  A    between atoms: _102  and  _103
REMARK   43  A    between atoms: _106  and  _108
REMARK   44  A    between atoms: _108  and  _109
REMARK   45  A    between atoms: _108  and  _111
REMARK   46  A    between atoms: _111  and  _112
REMARK   47  A    between atoms: _118  and  _120
REMARK   48  A    between atoms: _120  and  _121
REMARK   49  A    between atoms: _120  and  _123
REMARK   50  A    between atoms: _123  and  _124
REMARK   51  A    between atoms: _127  and  _129
REMARK   52  A    between atoms: _129  and  _130
REMARK   53  A    between atoms: _129  and  _132
REMARK   54  A    between atoms: _132  and  _133
REMARK   55  A    between atoms: _138  and  _139
REMARK   56  A    between atoms: _142  and  _143
REMARK   57  A    between atoms: _148  and  _150
REMARK   58  A    between atoms: _150  and  _151
REMARK   59  A    between atoms: _150  and  _153
REMARK   60  A    between atoms: _153  and  _154
REMARK   61  A    between atoms: _159  and  _161
REMARK   62  A    between atoms: _161  and  _162
REMARK   63  A    between atoms: _161  and  _164
REMARK   64  A    between atoms: _164  and  _165
REMARK   65  A    between atoms: _168  and  _170
REMARK   66  A    between atoms: _170  and  _171
REMARK   67  A    between atoms: _170  and  _173
REMARK   68  A    between atoms: _173  and  _174
REMARK   69  A    between atoms: _179  and  _181
REMARK   70  A    between atoms: _181  and  _182
REMARK   71  A    between atoms: _181  and  _184
REMARK   72  A    between atoms: _184  and  _185
REMARK   73  A    between atoms: _191  and  _193
REMARK   74  A    between atoms: _193  and  _194
REMARK   75  A    between atoms: _193  and  _196
REMARK   76  A    between atoms: _196  and  _197
REMARK   77  A    between atoms: _203  and  _205
REMARK   78  A    between atoms: _205  and  _206
REMARK   79  A    between atoms: _205  and  _208
REMARK   80  A    between atoms: _208  and  _209
REMARK   81  A    between atoms: _209  and  _210
REMARK   82  A    between atoms: _213  and  _215
REMARK   83  A    between atoms: _215  and  _216
REMARK   84  A    between atoms: _215  and  _218
REMARK   85  A    between atoms: _218  and  _219
REMARK   86  A    between atoms: _219  and  _220
REMARK   87  A    between atoms: _220  and  _221
REMARK   88  A    between atoms: _230  and  _232
REMARK   89  A    between atoms: _232  and  _233
REMARK   90  A    between atoms: _232  and  _235
REMARK   91  A    between atoms: _235  and  _236
REMARK   92  A    between atoms: _236  and  _237
REMARK   93  A    between atoms: _240  and  _242
REMARK   94  A    between atoms: _242  and  _243
REMARK   95  A    between atoms: _242  and  _245
REMARK   96  A    between atoms: _245  and  _246
REMARK   97  A    between atoms: _251  and  _253
REMARK   98  A    between atoms: _253  and  _254
REMARK   99  A    between atoms: _253  and  _256
REMARK  100  A    between atoms: _256  and  _257
REMARK  101  A    between atoms: _260  and  _262
REMARK  102  A    between atoms: _262  and  _263
REMARK  103  A    between atoms: _262  and  _265
REMARK  104  A    between atoms: _265  and  _266
REMARK  105  A    between atoms: _269  and  _271
REMARK  106  A    between atoms: _271  and  _272
REMARK  107  A    between atoms: _271  and  _274
REMARK  108  A    between atoms: _274  and  _275
REMARK  109  A    between atoms: _280  and  _282
REMARK  110  A    between atoms: _282  and  _283
REMARK  111  A    between atoms: _282  and  _285
REMARK  112  A    between atoms: _285  and  _286
REMARK  113  A    between atoms: _289  and  _291
REMARK  114  A    between atoms: _291  and  _292
REMARK  115  A    between atoms: _291  and  _294
REMARK  116  A    between atoms: _294  and  _295
REMARK  117  A    between atoms: _300  and  _302
REMARK  118  A    between atoms: _302  and  _303
REMARK  119  A    between atoms: _302  and  _305
REMARK  120  A    between atoms: _305  and  _306
REMARK  121  A    between atoms: _311  and  _313
REMARK  122  A    between atoms: _313  and  _314
REMARK  123  A    between atoms: _313  and  _316
REMARK  124  A    between atoms: _316  and  _317
REMARK  125  A    between atoms: _320  and  _322
REMARK  126  A    between atoms: _322  and  _323
REMARK  127  A    between atoms: _322  and  _325
REMARK  128  A    between atoms: _328  and  _330
REMARK  129  A    between atoms: _330  and  _331
REMARK  130  A    between atoms: _330  and  _333
REMARK  131  A    between atoms: _333  and  _334
REMARK  132  A    between atoms: _337  and  _339
REMARK  133  A    between atoms: _339  and  _340
REMARK  134  A    between atoms: _339  and  _342
REMARK  135  A    between atoms: _342  and  _343
REMARK  136  A    between atoms: _343  and  _344
REMARK  137  A    between atoms: _347  and  _349
REMARK  138  A    between atoms: _349  and  _350
REMARK  139  A    between atoms: _353  and  _355
REMARK  140  A    between atoms: _355  and  _356
REMARK  141  A    between atoms: _355  and  _358
REMARK  142  A    between atoms: _358  and  _359
REMARK  143  A    between atoms: _362  and  _364
REMARK  144  A    between atoms: _364  and  _365
REMARK  145  A    between atoms: _364  and  _367
REMARK  146  A    between atoms: _367  and  _368
REMARK  147  A    between atoms: _368  and  _369
REMARK  148  A    between atoms: _372  and  _374
REMARK  149  A    between atoms: _374  and  _375
REMARK  150  A    between atoms: _374  and  _377
REMARK  151  A    between atoms: _377  and  _378
REMARK  152  A    between atoms: _383  and  _385
REMARK  153  A    between atoms: _385  and  _386
REMARK  154  A    between atoms: _388  and  _390
REMARK  155  A    between atoms: _390  and  _391
REMARK  156  A    between atoms: _390  and  _393
REMARK  157  A    between atoms: _396  and  _398
REMARK  158  A    between atoms: _398  and  _399
REMARK  159  A    between atoms: _402  and  _404
REMARK  160  A    between atoms: _404  and  _405
REMARK  161  A    between atoms: _404  and  _407
REMARK  162  A    between atoms: _407  and  _408
REMARK  163  A    between atoms: _413  and  _415
REMARK  164  A    between atoms: _415  and  _416
REMARK  165  A    between atoms: _415  and  _418
REMARK  166  A    between atoms: _418  and  _419
REMARK  167  A    between atoms: _419  and  _420
REMARK  168  A    between atoms: _420  and  _421
REMARK  169  A    between atoms: _421  and  _422
REMARK  170  A    between atoms: _426  and  _428
REMARK  171  A    between atoms: _428  and  _429
REMARK  172  A    between atoms: _428  and  _431
REMARK  173  A    between atoms: _431  and  _432
REMARK  174  A    between atoms: _435  and  _437
REMARK  175  A    between atoms: _437  and  _438
REMARK  176  A    between atoms: _437  and  _440
REMARK  177  A    between atoms: _440  and  _441
REMARK  178  A    between atoms: _446  and  _448
REMARK  179  A    between atoms: _448  and  _449
REMARK  180  A    between atoms: _451  and  _453
REMARK  181  A    between atoms: _453  and  _454
REMARK  182  A    between atoms: _453  and  _456
REMARK  183  A    between atoms: _456  and  _457
REMARK  184  A    between atoms: _457  and  _458
REMARK  185  A    between atoms: _458  and  _459
REMARK  186  A    between atoms: _459  and  _460
REMARK  187  A    between atoms: _464  and  _466
REMARK  188  A    between atoms: _466  and  _467
REMARK  189  A    between atoms: _466  and  _469
REMARK  190  A    between atoms: _469  and  _470
REMARK  191  A    between atoms: _470  and  _471
REMARK  192  A    between atoms: _471  and  _472
REMARK  193  A    between atoms: _481  and  _483
REMARK  194  A    between atoms: _483  and  _484
REMARK  195  A    between atoms: _483  and  _486
REMARK  196  A    between atoms: _486  and  _487
REMARK  197  A    between atoms: _492  and  _494
REMARK  198  A    between atoms: _494  and  _495
REMARK  199  A    between atoms: _494  and  _497
REMARK  200  A    between atoms: _497  and  _498
REMARK  201  A    between atoms: _503  and  _504
REMARK  202  A    between atoms: _506  and  _508
REMARK  203  A    between atoms: _508  and  _509
REMARK  204  A    between atoms: _508  and  _511
REMARK  205  A    between atoms: _511  and  _512
REMARK  206  A    between atoms: _512  and  _513
REMARK  207  A    between atoms: _513  and  _514
REMARK  208  A    between atoms: _514  and  _515
REMARK  209  A    between atoms: _519  and  _521
REMARK  210  A    between atoms: _521  and  _522
REMARK  211  A    between atoms: _521  and  _524
REMARK  212  A    between atoms: _524  and  _525
REMARK  213  A    between atoms: _527  and  _529
REMARK  214  A    between atoms: _529  and  _530
REMARK  215  A    between atoms: _529  and  _532
REMARK  216  A    between atoms: _532  and  _533
REMARK  217  A    between atoms: _536  and  _538
REMARK  218  A    between atoms: _538  and  _539
REMARK  219  A    between atoms: _538  and  _541
REMARK  220  A    between atoms: _541  and  _542
REMARK  221  A    between atoms: _542  and  _543
REMARK  222  A    between atoms: _546  and  _548
REMARK  223  A    between atoms: _548  and  _549
REMARK  224  A    between atoms: _552  and  _554
REMARK  225  A    between atoms: _554  and  _555
REMARK  226  A    between atoms: _554  and  _557
REMARK  227  A    between atoms: _557  and  _558
REMARK  228  A    between atoms: _560  and  _562
REMARK  229  A    between atoms: _562  and  _563
REMARK  230  A    between atoms: _565  and  _567
REMARK  231  A    between atoms: _567  and  _568
REMARK  232  A    between atoms: _567  and  _570
REMARK  233  A    between atoms: _570  and  _571
REMARK  234  A    between atoms: _574  and  _576
REMARK  235  A    between atoms: _576  and  _577
REMARK  236  A    between atoms: _579  and  _581
REMARK  237  A    between atoms: _581  and  _582
REMARK  238  A    between atoms: _581  and  _584
REMARK  239  A    between atoms: _584  and  _585
REMARK  240  A    between atoms: _590  and  _592
REMARK  241  A    between atoms: _592  and  _593
REMARK  242  A    between atoms: _592  and  _595
REMARK  243  A    between atoms: _595  and  _596
REMARK  244  A    between atoms: _596  and  _597
REMARK  245  A    between atoms: _604  and  _605
REMARK  246  A    between atoms: _605  and  _621
REMARK  247  A    between atoms: _606  and  _608
REMARK  248  A    between atoms: _608  and  _609
REMARK  249  A    between atoms: _609  and  _610
REMARK  250  A    between atoms: _614  and  _616
REMARK  251  A    between atoms: _616  and  _617
REMARK  252  A    between atoms: _616  and  _624
REMARK  253  A    between atoms: _617  and  _618
REMARK  254  A    between atoms: _618  and  _619
REMARK  255  A    between atoms: _619  and  _620
REMARK  256  A    between atoms: _620  and  _621
REMARK  257  A    between atoms: _626  and  _628
REMARK  258  A    between atoms: _628  and  _629
REMARK  259  A    between atoms: _628  and  _631
REMARK  260  A    between atoms: _631  and  _632
REMARK  261  A    between atoms: _635  and  _637
REMARK  262  A    between atoms: _637  and  _638
REMARK  263  A    between atoms: _640  and  _642
REMARK  264  A    between atoms: _642  and  _643
REMARK  265  A    between atoms: _646  and  _648
REMARK  266  A    between atoms: _648  and  _649
REMARK  267  A    between atoms: _648  and  _651
REMARK  268  A    between atoms: _651  and  _652
REMARK  269  A    between atoms: _657  and  _658
REMARK                            x       y       z     vdW  Elec       q    Type
REMARK                         _______ _______ _______ _____ _____    ______ ____
ROOT
ATOM      1  CA  GLY A   7      23.474  22.353  23.471  0.00  0.00    +0.176 C 
ENDROOT
BRANCH   1   2
ATOM      2  C   GLY A   7      22.993  22.060  22.063  0.00  0.00    +0.243 C 
ATOM      3  O   GLY A   7      21.805  21.810  21.844  0.00  0.00    -0.273 OA
ATOM      4  N   ASN A   8      23.932  22.066  21.117  0.00  0.00    -0.297 N 
ATOM      5  H   ASN A   8      24.892  22.378  21.366  0.00  0.00    +0.150 HD
BRANCH   4   6
ATOM      6  CA  ASN A   8      23.661  21.648  19.737  0.00  0.00    +0.158 C 
BRANCH   6   7
ATOM      7  C   ASN A   8      22.853  20.343  19.638  0.00  0.00    +0.241 C 
ATOM      8  N   MET A   9      23.275  19.338  20.398  0.00  0.00    -0.297 N 
ATOM      9  H   MET A   9      24.105  19.484  21.007  0.00  0.00    +0.150 HD
ATOM     10  O   ASN A   8      21.854  20.265  18.913  0.00  0.00    -0.273 OA
BRANCH   8  11
ATOM     11  CA  MET A   9      22.614  18.033  20.408  0.00  0.00    +0.149 C 
BRANCH  11  12
ATOM     12  C   MET A   9      21.199  18.093  20.980  0.00  0.00    +0.241 C 
ATOM     13  N   UNK A  10      21.018  18.890  22.034  0.00  0.00    -0.298 N 
ATOM     14  H   UNK A  10      21.837  19.402  22.419  0.00  0.00    +0.150 HD
ATOM     15  O   MET A   9      20.295  17.423  20.471  0.00  0.00    -0.273 OA
BRANCH  13  16
ATOM     16  C   UNK A  10      19.711  19.073  22.672  0.00  0.00    +0.137 C 
BRANCH  16  17
ATOM     17  C   UNK A  10      18.695  19.639  21.677  0.00  0.00    +0.227 C 
ATOM     18  O   UNK A  10      17.571  19.143  21.579  0.00  0.00    -0.286 OA
ENDBRANCH  16  17
BRANCH  16  19
ATOM     19  C   UNK A  10      19.824  19.987  23.903  0.00  0.00    +0.028 C 
BRANCH  19  20
ATOM     20  C   UNK A  10      20.754  19.476  25.002  0.00  0.00    -0.000 C 
BRANCH  20  21
ATOM     21  C   UNK A  10      20.971  20.536  26.079  0.00  0.00    -0.023 C 
BRANCH  21  22
ATOM     22  C   UNK A  10      22.255  20.291  26.860  0.00  0.00    -0.081 C 
BRANCH  22  23
ATOM     23  N   UNK A  10      22.508  21.433  27.801  0.00  0.00    +0.387 N 
ATOM     24  H   UNK A  10      21.733  22.122  27.718  0.00  0.00    -0.084 HD
ATOM     25  H   UNK A  10      22.545  21.071  28.775  0.00  0.00    -0.084 HD
BRANCH  23  26
ATOM     26  C   UNK A  10      23.663  22.037  27.515  0.00  0.00    -0.051 C 
BRANCH  26  27
ATOM     27  C   UNK A  10      23.884  23.277  28.351  0.00  0.00    -0.007 C 
ATOM     28  C   UNK A  10      25.007  24.078  28.110  0.00  0.00    +0.023 C 
ATOM     29  C   UNK A  10      25.231  25.238  28.849  0.00  0.00    +0.091 C 
ATOM     30  N   UNK A  10      24.356  25.587  29.857  0.00  0.00    -0.263 NA
ATOM     31  C   UNK A  10      23.249  24.798  30.124  0.00  0.00    +0.164 C 
ATOM     32  C   UNK A  10      22.316  25.209  31.223  0.00  0.00    +0.035 C 
ATOM     33  C   UNK A  10      23.001  23.642  29.379  0.00  0.00    +0.189 C 
ATOM     34  O   UNK A  10      22.003  22.956  29.634  0.00  0.00    -0.290 OA
BRANCH  28  35
ATOM     35  C   UNK A  10      25.967  23.749  27.011  0.00  0.00    +0.181 C 
BRANCH  35  36
ATOM     36  O   UNK A  10      25.589  24.358  25.757  0.00  0.00    -0.265 OA
BRANCH  36  37
ATOM     37  P   UNK A  10      26.634  24.737  24.590  0.00  0.00    +0.533 P 
ATOM     38  O   UNK A  10      27.098  23.432  24.088  0.00  0.00    -0.115 OA
ATOM     39  O   UNK A  10      27.683  25.565  25.231  0.00  0.00    -0.115 OA
ATOM     40  O   UNK A  10      25.742  25.486  23.677  0.00  0.00    -0.222 OA
ENDBRANCH  36  37
ENDBRANCH  35  36
ENDBRANCH  28  35
ENDBRANCH  26  27
ENDBRANCH  23  26
ENDBRANCH  22  23
ENDBRANCH  21  22
ENDBRANCH  20  21
ENDBRANCH  19  20
ENDBRANCH  16  19
ENDBRANCH  13  16
ENDBRANCH  11  12
BRANCH  11  41
ATOM     41  CB  MET A   9      23.453  17.028  21.186  0.00  0.00    +0.041 C 
BRANCH  41  42
ATOM     42  CG  MET A   9      24.875  16.924  20.679  0.00  0.00    +0.060 C 
BRANCH  42  43
ATOM     43  SD  MET A   9      25.917  15.985  21.784  0.00  0.00    -0.139 S 
ATOM     44  CE  MET A   9      27.508  16.208  20.992  0.00  0.00    +0.069 C 
ENDBRANCH  42  43
ENDBRANCH  41  42
ENDBRANCH  11  41
ENDBRANCH   8  11
ENDBRANCH   6   7
BRANCH   6  45
ATOM     45  CB  ASN A   8      24.961  21.572  18.909  0.00  0.00    +0.114 C 
BRANCH  45  46
ATOM     46  CG  ASN A   8      26.071  20.752  19.577  0.00  0.00    +0.222 C 
ATOM     47  OD1 ASN A   8      25.875  20.109  20.606  0.00  0.00    -0.275 OA
ATOM     48  ND2 ASN A   8      27.253  20.778  18.972  0.00  0.00    -0.329 N 
ATOM     49 HD21 ASN A   8      28.052  20.242  19.368  0.00  0.00    +0.145 HD
ATOM     50 HD22 ASN A   8      27.380  21.334  18.102  0.00  0.00    +0.145 HD
ENDBRANCH  45  46
ENDBRANCH   6  45
ENDBRANCH   4   6
ENDBRANCH   1   2
BRANCH   1  52
ATOM     51  C   THR A   6      24.807  20.305  23.614  0.00  0.00    +0.243 C 
ATOM     52  N   GLY A   7      24.720  21.630  23.717  0.00  0.00    -0.295 N 
ATOM     53  H   GLY A   7      25.569  22.169  23.982  0.00  0.00    +0.150 HD
ATOM     54  O   THR A   6      23.837  19.574  23.396  0.00  0.00    -0.273 OA
BRANCH  51  55
ATOM     55  CA  THR A   6      26.197  19.714  23.781  0.00  0.00    +0.176 C 
BRANCH  55  57
ATOM     56  C   GLY A   5      28.258  20.404  22.659  0.00  0.00    +0.243 C 
ATOM     57  N   THR A   6      27.215  20.705  23.424  0.00  0.00    -0.295 N 
ATOM     58  H   THR A   6      27.118  21.677  23.782  0.00  0.00    +0.150 HD
ATOM     59  O   GLY A   5      28.512  19.251  22.288  0.00  0.00    -0.273 OA
BRANCH  56  60
ATOM     60  CA  GLY A   5      29.168  21.562  22.286  0.00  0.00    +0.176 C 
BRANCH  60  62
ATOM     61  C   SER A   4      30.900  20.488  20.971  0.00  0.00    +0.243 C 
ATOM     62  N   GLY A   5      30.517  21.063  22.109  0.00  0.00    -0.295 N 
ATOM     63  H   GLY A   5      31.200  21.156  22.887  0.00  0.00    +0.150 HD
ATOM     64  O   SER A   4      30.249  20.556  19.926  0.00  0.00    -0.273 OA
BRANCH  61  65
ATOM     65  CA  SER A   4      32.211  19.722  21.025  0.00  0.00    +0.178 C 
BRANCH  65  67
ATOM     66  C   ALA A   3      34.543  20.437  20.949  0.00  0.00    +0.241 C 
ATOM     67  N   SER A   4      33.320  20.577  21.456  0.00  0.00    -0.295 N 
ATOM     68  H   SER A   4      33.148  21.310  22.174  0.00  0.00    +0.150 HD
ATOM     69  O   ALA A   3      34.845  19.537  20.160  0.00  0.00    -0.273 OA
BRANCH  66  70
ATOM     70  CA  ALA A   3      35.582  21.472  21.387  0.00  0.00    +0.149 C 
ATOM     71  CB  ALA A   3      36.143  21.134  22.761  0.00  0.00    +0.031 C 
BRANCH  70  73
ATOM     72  C   GLU A   2      34.464  23.342  20.280  0.00  0.00    +0.241 C 
ATOM     73  N   ALA A   3      35.031  22.829  21.372  0.00  0.00    -0.297 N 
ATOM     74  H   ALA A   3      35.083  23.407  22.235  0.00  0.00    +0.150 HD
ATOM     75  O   GLU A   2      34.290  22.694  19.246  0.00  0.00    -0.273 OA
BRANCH  72  76
ATOM     76  CA  GLU A   2      34.039  24.804  20.352  0.00  0.00    +0.149 C 
BRANCH  76  79
ATOM     77  C   THR A   1      36.046  26.153  20.010  0.00  0.00    +0.241 C 
ATOM     78  O   THR A   1      36.335  26.111  21.205  0.00  0.00    -0.274 OA
ATOM     79  N   GLU A   2      34.943  25.593  19.514  0.00  0.00    -0.297 N 
ATOM     80  H   GLU A   2      34.719  25.720  18.506  0.00  0.00    +0.150 HD
BRANCH  77  81
ATOM     81  CA  THR A   1      36.968  26.884  19.028  0.00  0.00    +0.172 C 
BRANCH  81  82
ATOM     82  N   THR A   1      37.019  26.321  17.672  0.00  0.00    -0.236 NA
ATOM     83  H   THR A   1      36.199  26.433  17.043  0.00  0.00    +0.142 HD
ENDBRANCH  81  82
BRANCH  81  84
ATOM     84  CB  THR A   1      36.612  28.392  19.031  0.00  0.00    +0.135 C 
ATOM     85  CG2 THR A   1      37.626  29.209  18.219  0.00  0.00    +0.034 C 
BRANCH  84  86
ATOM     86  OG1 THR A   1      35.294  28.584  18.507  0.00  0.00    -0.383 OA
ATOM     87  HG1 THR A   1      35.256  28.241  17.579  0.00  0.00    +0.210 HD
ENDBRANCH  84  86
ENDBRANCH  81  84
ENDBRANCH  77  81
ENDBRANCH  76  79
BRANCH  76  88
ATOM     88  CB  GLU A   2      32.580  24.970  19.895  0.00  0.00    +0.041 C 
BRANCH  88  89
ATOM     89  CG  GLU A   2      31.533  24.433  20.874  0.00  0.00    +0.116 C 
BRANCH  89  90
ATOM     90  CD  GLU A   2      31.343  25.337  22.077  0.00  0.00    +0.365 C 
ATOM     91  OE2 GLU A   2      31.972  25.077  23.124  0.00  0.00    -0.246 OA
ATOM     92  OE1 GLU A   2      30.589  26.325  21.966  0.00  0.00    -0.246 OA
ENDBRANCH  89  90
ENDBRANCH  88  89
ENDBRANCH  76  88
ENDBRANCH  72  76
ENDBRANCH  70  73
ENDBRANCH  66  70
ENDBRANCH  65  67
BRANCH  65  93
ATOM     93  CB  SER A   4      32.055  18.512  21.954  0.00  0.00    +0.166 C 
BRANCH  93  94
ATOM     94  OG  SER A   4      30.853  17.803  21.674  0.00  0.00    -0.380 OA
ATOM     95  H   SER A   4      30.078  18.405  21.804  0.00  0.00    +0.211 HD
ENDBRANCH  93  94
ENDBRANCH  65  93
ENDBRANCH  61  65
ENDBRANCH  60  62
ENDBRANCH  56  60
ENDBRANCH  55  57
BRANCH  55  96
ATOM     96  CB  THR A   6      26.359  19.204  25.222  0.00  0.00    +0.137 C 
ATOM     97  CG2 THR A   6      27.559  18.265  25.328  0.00  0.00    +0.034 C 
BRANCH  96  98
ATOM     98  OG1 THR A   6      26.543  20.319  26.101  0.00  0.00    -0.382 OA
ATOM     99  HG1 THR A   6      26.647  19.992  27.030  0.00  0.00    +0.210 HD
ENDBRANCH  96  98
ENDBRANCH  55  96
ENDBRANCH  51  55
ENDBRANCH   1  52
TORSDOF 44
REMARK  Name = ../refined-set-2016/2qrp/2qrp_pocket.pdb
REMARK  269 active torsions:
REMARK  status: ('A' for Active; 'I' for Inactive)
REMARK    1  A    between atoms: _1  and  _3
REMARK    2  A    between atoms: _3  and  _4
REMARK    3  A    between atoms: _3  and  _6
REMARK    4  A    between atoms: _6  and  _7
REMARK    5  A    between atoms: _12  and  _13
REMARK    6  A    between atoms: _15  and  _17
REMARK    7  A    between atoms: _17  and  _18
REMARK    8  A    between atoms: _17  and  _20
REMARK    9  A    between atoms: _20  and  _21
REMARK   10  A    between atoms: _24  and  _26
REMARK   11  A    between atoms: _26  and  _27
REMARK   12  A    between atoms: _26  and  _29
REMARK   13  A    between atoms: _29  and  _30
REMARK   14  A    between atoms: _30  and  _31
REMARK   15  A    between atoms: _34  and  _36
REMARK   16  A    between atoms: _36  and  _37
REMARK   17  A    between atoms: _39  and  _41
REMARK   18  A    between atoms: _41  and  _42
REMARK   19  A    between atoms: _41  and  _44
REMARK   20  A    between atoms: _44  and  _45
REMARK   21  A    between atoms: _50  and  _52
REMARK   22  A    between atoms: _52  and  _53
REMARK   23  A    between atoms: _55  and  _57
REMARK   24  A    between atoms: _57  and  _58
REMARK   25  A    between atoms: _60  and  _62
REMARK   26  A    between atoms: _62  and  _63
REMARK   27  A    between atoms: _62  and  _65
REMARK   28  A    between atoms: _65  and  _66
REMARK   29  A    between atoms: _69  and  _71
REMARK   30  A    between atoms: _71  and  _72
REMARK   31  A    between atoms: _74  and  _76
REMARK   32  A    between atoms: _76  and  _77
REMARK   33  A    between atoms: _76  and  _79
REMARK   34  A    between atoms: _79  and  _80
REMARK   35  A    between atoms: _80  and  _81
REMARK   36  A    between atoms: _81  and  _82
REMARK   37  A    between atoms: _91  and  _93
REMARK   38  A    between atoms: _93  and  _94
REMARK   39  A    between atoms: _93  and  _96
REMARK   40  A    between atoms: _96  and  _97
REMARK   41  A    between atoms: _100  and  _102
REMARK   42  A    between atoms: _102  and  _103
REMARK   43  A    between atoms: _106  and  _108
REMARK   44  A    between atoms: _108  and  _109
REMARK   45  A    between atoms: _108  and  _111
REMARK   46  A    between atoms: _111  and  _112
REMARK   47  A    between atoms: _118  and  _120
REMARK   48  A    between atoms: _120  and  _121
REMARK   49  A    between atoms: _120  and  _123
REMARK   50  A    between atoms: _123  and  _124
REMARK   51  A    between atoms: _127  and  _129
REMARK   52  A    between atoms: _129  and  _130
REMARK   53  A    between atoms: _129  and  _132
REMARK   54  A    between atoms: _132  and  _133
REMARK   55  A    between atoms: _138  and  _139
REMARK   56  A    between atoms: _142  and  _143
REMARK   57  A    between atoms: _148  and  _150
REMARK   58  A    between atoms: _150  and  _151
REMARK   59  A    between atoms: _150  and  _153
REMARK   60  A    between atoms: _153  and  _154
REMARK   61  A    between atoms: _159  and  _161
REMARK   62  A    between atoms: _161  and  _162
REMARK   63  A    between atoms: _161  and  _164
REMARK   64  A    between atoms: _164  and  _165
REMARK   65  A    between atoms: _168  and  _170
REMARK   66  A    between atoms: _170  and  _171
REMARK   67  A    between atoms: _170  and  _173
REMARK   68  A    between atoms: _173  and  _174
REMARK   69  A    between atoms: _179  and  _181
REMARK   70  A    between atoms: _181  and  _182
REMARK   71  A    between atoms: _181  and  _184
REMARK   72  A    between atoms: _184  and  _185
REMARK   73  A    between atoms: _191  and  _193
REMARK   74  A    between atoms: _193  and  _194
REMARK   75  A    between atoms: _193  and  _196
REMARK   76  A    between atoms: _196  and  _197
REMARK   77  A    between atoms: _203  and  _205
REMARK   78  A    between atoms: _205  and  _206
REMARK   79  A    between atoms: _205  and  _208
REMARK   80  A    between atoms: _208  and  _209
REMARK   81  A    between atoms: _209  and  _210
REMARK   82  A    between atoms: _213  and  _215
REMARK   83  A    between atoms: _215  and  _216
REMARK   84  A    between atoms: _215  and  _218
REMARK   85  A    between atoms: _218  and  _219
REMARK   86  A    between atoms: _219  and  _220
REMARK   87  A    between atoms: _220  and  _221
REMARK   88  A    between atoms: _230  and  _232
REMARK   89  A    between atoms: _232  and  _233
REMARK   90  A    between atoms: _232  and  _235
REMARK   91  A    between atoms: _235  and  _236
REMARK   92  A    between atoms: _236  and  _237
REMARK   93  A    between atoms: _240  and  _242
REMARK   94  A    between atoms: _242  and  _243
REMARK   95  A    between atoms: _242  and  _245
REMARK   96  A    between atoms: _245  and  _246
REMARK   97  A    between atoms: _251  and  _253
REMARK   98  A    between atoms: _253  and  _254
REMARK   99  A    between atoms: _253  and  _256
REMARK  100  A    between atoms: _256  and  _257
REMARK  101  A    between atoms: _260  and  _262
REMARK  102  A    between atoms: _262  and  _263
REMARK  103  A    between atoms: _262  and  _265
REMARK  104  A    between atoms: _265  and  _266
REMARK  105  A    between atoms: _269  and  _271
REMARK  106  A    between atoms: _271  and  _272
REMARK  107  A    between atoms: _271  and  _274
REMARK  108  A    between atoms: _274  and  _275
REMARK  109  A    between atoms: _280  and  _282
REMARK  110  A    between atoms: _282  and  _283
REMARK  111  A    between atoms: _282  and  _285
REMARK  112  A    between atoms: _285  and  _286
REMARK  113  A    between atoms: _289  and  _291
REMARK  114  A    between atoms: _291  and  _292
REMARK  115  A    between atoms: _291  and  _294
REMARK  116  A    between atoms: _294  and  _295
REMARK  117  A    between atoms: _300  and  _302
REMARK  118  A    between atoms: _302  and  _303
REMARK  119  A    between atoms: _302  and  _305
REMARK  120  A    between atoms: _305  and  _306
REMARK  121  A    between atoms: _311  and  _313
REMARK  122  A    between atoms: _313  and  _314
REMARK  123  A    between atoms: _313  and  _316
REMARK  124  A    between atoms: _316  and  _317
REMARK  125  A    between atoms: _320  and  _322
REMARK  126  A    between atoms: _322  and  _323
REMARK  127  A    between atoms: _322  and  _325
REMARK  128  A    between atoms: _328  and  _330
REMARK  129  A    between atoms: _330  and  _331
REMARK  130  A    between atoms: _330  and  _333
REMARK  131  A    between atoms: _333  and  _334
REMARK  132  A    between atoms: _337  and  _339
REMARK  133  A    between atoms: _339  and  _340
REMARK  134  A    between atoms: _339  and  _342
REMARK  135  A    between atoms: _342  and  _343
REMARK  136  A    between atoms: _343  and  _344
REMARK  137  A    between atoms: _347  and  _349
REMARK  138  A    between atoms: _349  and  _350
REMARK  139  A    between atoms: _353  and  _355
REMARK  140  A    between atoms: _355  and  _356
REMARK  141  A    between atoms: _355  and  _358
REMARK  142  A    between atoms: _358  and  _359
REMARK  143  A    between atoms: _362  and  _364
REMARK  144  A    between atoms: _364  and  _365
REMARK  145  A    between atoms: _364  and  _367
REMARK  146  A    between atoms: _367  and  _368
REMARK  147  A    between atoms: _368  and  _369
REMARK  148  A    between atoms: _372  and  _374
REMARK  149  A    between atoms: _374  and  _375
REMARK  150  A    between atoms: _374  and  _377
REMARK  151  A    between atoms: _377  and  _378
REMARK  152  A    between atoms: _383  and  _385
REMARK  153  A    between atoms: _385  and  _386
REMARK  154  A    between atoms: _388  and  _390
REMARK  155  A    between atoms: _390  and  _391
REMARK  156  A    between atoms: _390  and  _393
REMARK  157  A    between atoms: _396  and  _398
REMARK  158  A    between atoms: _398  and  _399
REMARK  159  A    between atoms: _402  and  _404
REMARK  160  A    between atoms: _404  and  _405
REMARK  161  A    between atoms: _404  and  _407
REMARK  162  A    between atoms: _407  and  _408
REMARK  163  A    between atoms: _413  and  _415
REMARK  164  A    between atoms: _415  and  _416
REMARK  165  A    between atoms: _415  and  _418
REMARK  166  A    between atoms: _418  and  _419
REMARK  167  A    between atoms: _419  and  _420
REMARK  168  A    between atoms: _420  and  _421
REMARK  169  A    between atoms: _421  and  _422
REMARK  170  A    between atoms: _426  and  _428
REMARK  171  A    between atoms: _428  and  _429
REMARK  172  A    between atoms: _428  and  _431
REMARK  173  A    between atoms: _431  and  _432
REMARK  174  A    between atoms: _435  and  _437
REMARK  175  A    between atoms: _437  and  _438
REMARK  176  A    between atoms: _437  and  _440
REMARK  177  A    between atoms: _440  and  _441
REMARK  178  A    between atoms: _446  and  _448
REMARK  179  A    between atoms: _448  and  _449
REMARK  180  A    between atoms: _451  and  _453
REMARK  181  A    between atoms: _453  and  _454
REMARK  182  A    between atoms: _453  and  _456
REMARK  183  A    between atoms: _456  and  _457
REMARK  184  A    between atoms: _457  and  _458
REMARK  185  A    between atoms: _458  and  _459
REMARK  186  A    between atoms: _459  and  _460
REMARK  187  A    between atoms: _464  and  _466
REMARK  188  A    between atoms: _466  and  _467
REMARK  189  A    between atoms: _466  and  _469
REMARK  190  A    between atoms: _469  and  _470
REMARK  191  A    between atoms: _470  and  _471
REMARK  192  A    between atoms: _471  and  _472
REMARK  193  A    between atoms: _481  and  _483
REMARK  194  A    between atoms: _483  and  _484
REMARK  195  A    between atoms: _483  and  _486
REMARK  196  A    between atoms: _486  and  _487
REMARK  197  A    between atoms: _492  and  _494
REMARK  198  A    between atoms: _494  and  _495
REMARK  199  A    between atoms: _494  and  _497
REMARK  200  A    between atoms: _497  and  _498
REMARK  201  A    between atoms: _503  and  _504
REMARK  202  A    between atoms: _506  and  _508
REMARK  203  A    between atoms: _508  and  _509
REMARK  204  A    between atoms: _508  and  _511
REMARK  205  A    between atoms: _511  and  _512
REMARK  206  A    between atoms: _512  and  _513
REMARK  207  A    between atoms: _513  and  _514
REMARK  208  A    between atoms: _514  and  _515
REMARK  209  A    between atoms: _519  and  _521
REMARK  210  A    between atoms: _521  and  _522
REMARK  211  A    between atoms: _521  and  _524
REMARK  212  A    between atoms: _524  and  _525
REMARK  213  A    between atoms: _527  and  _529
REMARK  214  A    between atoms: _529  and  _530
REMARK  215  A    between atoms: _529  and  _532
REMARK  216  A    between atoms: _532  and  _533
REMARK  217  A    between atoms: _536  and  _538
REMARK  218  A    between atoms: _538  and  _539
REMARK  219  A    between atoms: _538  and  _541
REMARK  220  A    between atoms: _541  and  _542
REMARK  221  A    between atoms: _542  and  _543
REMARK  222  A    between atoms: _546  and  _548
REMARK  223  A    between atoms: _548  and  _549
REMARK  224  A    between atoms: _552  and  _554
REMARK  225  A    between atoms: _554  and  _555
REMARK  226  A    between atoms: _554  and  _557
REMARK  227  A    between atoms: _557  and  _558
REMARK  228  A    between atoms: _560  and  _562
REMARK  229  A    between atoms: _562  and  _563
REMARK  230  A    between atoms: _565  and  _567
REMARK  231  A    between atoms: _567  and  _568
REMARK  232  A    between atoms: _567  and  _570
REMARK  233  A    between atoms: _570  and  _571
REMARK  234  A    between atoms: _574  and  _576
REMARK  235  A    between atoms: _576  and  _577
REMARK  236  A    between atoms: _579  and  _581
REMARK  237  A    between atoms: _581  and  _582
REMARK  238  A    between atoms: _581  and  _584
REMARK  239  A    between atoms: _584  and  _585
REMARK  240  A    between atoms: _590  and  _592
REMARK  241  A    between atoms: _592  and  _593
REMARK  242  A    between atoms: _592  and  _595
REMARK  243  A    between atoms: _595  and  _596
REMARK  244  A    between atoms: _596  and  _597
REMARK  245  A    between atoms: _604  and  _605
REMARK  246  A    between atoms: _605  and  _621
REMARK  247  A    between atoms: _606  and  _608
REMARK  248  A    between atoms: _608  and  _609
REMARK  249  A    between atoms: _609  and  _610
REMARK  250  A    between atoms: _614  and  _616
REMARK  251  A    between atoms: _616  and  _617
REMARK  252  A    between atoms: _616  and  _624
REMARK  253  A    between atoms: _617  and  _618
REMARK  254  A    between atoms: _618  and  _619
REMARK  255  A    between atoms: _619  and  _620
REMARK  256  A    between atoms: _620  and  _621
REMARK  257  A    between atoms: _626  and  _628
REMARK  258  A    between atoms: _628  and  _629
REMARK  259  A    between atoms: _628  and  _631
REMARK  260  A    between atoms: _631  and  _632
REMARK  261  A    between atoms: _635  and  _637
REMARK  262  A    between atoms: _637  and  _638
REMARK  263  A    between atoms: _640  and  _642
REMARK  264  A    between atoms: _642  and  _643
REMARK  265  A    between atoms: _646  and  _648
REMARK  266  A    between atoms: _648  and  _649
REMARK  267  A    between atoms: _648  and  _651
REMARK  268  A    between atoms: _651  and  _652
REMARK  269  A    between atoms: _657  and  _658
REMARK                            x       y       z     vdW  Elec       q    Type
REMARK                         _______ _______ _______ _____ _____    ______ ____
ROOT
ATOM      1  C   ASP A   1      32.405  22.096  15.521  0.00  0.00    +0.239 C 
ATOM      2  N   GLY A   2      33.316  21.544  16.321  0.00  0.00    -0.296 N 
ATOM      3  H   GLY A   2      34.315  21.803  16.197  0.00  0.00    +0.150 HD
ATOM      4  O   ASP A   1      31.202  21.817  15.562  0.00  0.00    -0.274 OA
ENDROOT
BRANCH   1   5
ATOM      5  CA  ASP A   1      32.924  23.117  14.521  0.00  0.00    +0.156 C 
BRANCH   5   6
ATOM      6  N   ASP A   1      32.148  23.061  13.290  0.00  0.00    -0.238 NA
ATOM      7  H   ASP A   1      31.112  23.002  13.354  0.00  0.00    +0.142 HD
ENDBRANCH   5   6
BRANCH   5   8
ATOM      8  CB  ASP A   1      32.859  24.524  15.129  0.00  0.00    +0.140 C 
BRANCH   8   9
ATOM      9  CG  ASP A   1      33.967  24.775  16.141  0.00  0.00    +0.367 C 
ATOM     10  OD2 ASP A   1      33.804  25.678  16.982  0.00  0.00    -0.246 OA
ATOM     11  OD1 ASP A   1      35.001  24.073  16.086  0.00  0.00    -0.246 OA
ENDBRANCH   8   9
ENDBRANCH   5   8
ENDBRANCH   1   5
BRANCH   2  12
ATOM     12  CA  GLY A   2      32.962  20.589  17.365  0.00  0.00    +0.176 C 
BRANCH  12  13
ATOM     13  C   GLY A   2      32.118  19.437  16.857  0.00  0.00    +0.243 C 
ATOM     14  N   ALA A   3      31.081  19.102  17.613  0.00  0.00    -0.298 N 
ATOM     15  H   ALA A   3      30.899  19.628  18.491  0.00  0.00    +0.150 HD
ATOM     16  O   GLY A   2      32.390  18.872  15.795  0.00  0.00    -0.273 OA
BRANCH  14  17
ATOM     17  CA  ALA A   3      30.190  18.008  17.235  0.00  0.00    +0.137 C 
ATOM     18  CB  ALA A   3      29.482  17.447  18.457  0.00  0.00    +0.030 C 
BRANCH  17  19
ATOM     19  C   ALA A   3      29.183  18.392  16.141  0.00  0.00    +0.227 C 
ATOM     20  O   ALA A   3      28.491  17.514  15.606  0.00  0.00    -0.286 OA
ENDBRANCH  17  19
ENDBRANCH  14  17
ENDBRANCH  12  13
ENDBRANCH   2  12
TORSDOF 8
REMARK  Name = ../refined-set-2016/2qrp/2qrp_pocket.pdb
REMARK  269 active torsions:
REMARK  status: ('A' for Active; 'I' for Inactive)
REMARK    1  A    between atoms: _1  and  _3
REMARK    2  A    between atoms: _3  and  _4
REMARK    3  A    between atoms: _3  and  _6
REMARK    4  A    between atoms: _6  and  _7
REMARK    5  A    between atoms: _12  and  _13
REMARK    6  A    between atoms: _15  and  _17
REMARK    7  A    between atoms: _17  and  _18
REMARK    8  A    between atoms: _17  and  _20
REMARK    9  A    between atoms: _20  and  _21
REMARK   10  A    between atoms: _24  and  _26
REMARK   11  A    between atoms: _26  and  _27
REMARK   12  A    between atoms: _26  and  _29
REMARK   13  A    between atoms: _29  and  _30
REMARK   14  A    between atoms: _30  and  _31
REMARK   15  A    between atoms: _34  and  _36
REMARK   16  A    between atoms: _36  and  _37
REMARK   17  A    between atoms: _39  and  _41
REMARK   18  A    between atoms: _41  and  _42
REMARK   19  A    between atoms: _41  and  _44
REMARK   20  A    between atoms: _44  and  _45
REMARK   21  A    between atoms: _50  and  _52
REMARK   22  A    between atoms: _52  and  _53
REMARK   23  A    between atoms: _55  and  _57
REMARK   24  A    between atoms: _57  and  _58
REMARK   25  A    between atoms: _60  and  _62
REMARK   26  A    between atoms: _62  and  _63
REMARK   27  A    between atoms: _62  and  _65
REMARK   28  A    between atoms: _65  and  _66
REMARK   29  A    between atoms: _69  and  _71
REMARK   30  A    between atoms: _71  and  _72
REMARK   31  A    between atoms: _74  and  _76
REMARK   32  A    between atoms: _76  and  _77
REMARK   33  A    between atoms: _76  and  _79
REMARK   34  A    between atoms: _79  and  _80
REMARK   35  A    between atoms: _80  and  _81
REMARK   36  A    between atoms: _81  and  _82
REMARK   37  A    between atoms: _91  and  _93
REMARK   38  A    between atoms: _93  and  _94
REMARK   39  A    between atoms: _93  and  _96
REMARK   40  A    between atoms: _96  and  _97
REMARK   41  A    between atoms: _100  and  _102
REMARK   42  A    between atoms: _102  and  _103
REMARK   43  A    between atoms: _106  and  _108
REMARK   44  A    between atoms: _108  and  _109
REMARK   45  A    between atoms: _108  and  _111
REMARK   46  A    between atoms: _111  and  _112
REMARK   47  A    between atoms: _118  and  _120
REMARK   48  A    between atoms: _120  and  _121
REMARK   49  A    between atoms: _120  and  _123
REMARK   50  A    between atoms: _123  and  _124
REMARK   51  A    between atoms: _127  and  _129
REMARK   52  A    between atoms: _129  and  _130
REMARK   53  A    between atoms: _129  and  _132
REMARK   54  A    between atoms: _132  and  _133
REMARK   55  A    between atoms: _138  and  _139
REMARK   56  A    between atoms: _142  and  _143
REMARK   57  A    between atoms: _148  and  _150
REMARK   58  A    between atoms: _150  and  _151
REMARK   59  A    between atoms: _150  and  _153
REMARK   60  A    between atoms: _153  and  _154
REMARK   61  A    between atoms: _159  and  _161
REMARK   62  A    between atoms: _161  and  _162
REMARK   63  A    between atoms: _161  and  _164
REMARK   64  A    between atoms: _164  and  _165
REMARK   65  A    between atoms: _168  and  _170
REMARK   66  A    between atoms: _170  and  _171
REMARK   67  A    between atoms: _170  and  _173
REMARK   68  A    between atoms: _173  and  _174
REMARK   69  A    between atoms: _179  and  _181
REMARK   70  A    between atoms: _181  and  _182
REMARK   71  A    between atoms: _181  and  _184
REMARK   72  A    between atoms: _184  and  _185
REMARK   73  A    between atoms: _191  and  _193
REMARK   74  A    between atoms: _193  and  _194
REMARK   75  A    between atoms: _193  and  _196
REMARK   76  A    between atoms: _196  and  _197
REMARK   77  A    between atoms: _203  and  _205
REMARK   78  A    between atoms: _205  and  _206
REMARK   79  A    between atoms: _205  and  _208
REMARK   80  A    between atoms: _208  and  _209
REMARK   81  A    between atoms: _209  and  _210
REMARK   82  A    between atoms: _213  and  _215
REMARK   83  A    between atoms: _215  and  _216
REMARK   84  A    between atoms: _215  and  _218
REMARK   85  A    between atoms: _218  and  _219
REMARK   86  A    between atoms: _219  and  _220
REMARK   87  A    between atoms: _220  and  _221
REMARK   88  A    between atoms: _230  and  _232
REMARK   89  A    between atoms: _232  and  _233
REMARK   90  A    between atoms: _232  and  _235
REMARK   91  A    between atoms: _235  and  _236
REMARK   92  A    between atoms: _236  and  _237
REMARK   93  A    between atoms: _240  and  _242
REMARK   94  A    between atoms: _242  and  _243
REMARK   95  A    between atoms: _242  and  _245
REMARK   96  A    between atoms: _245  and  _246
REMARK   97  A    between atoms: _251  and  _253
REMARK   98  A    between atoms: _253  and  _254
REMARK   99  A    between atoms: _253  and  _256
REMARK  100  A    between atoms: _256  and  _257
REMARK  101  A    between atoms: _260  and  _262
REMARK  102  A    between atoms: _262  and  _263
REMARK  103  A    between atoms: _262  and  _265
REMARK  104  A    between atoms: _265  and  _266
REMARK  105  A    between atoms: _269  and  _271
REMARK  106  A    between atoms: _271  and  _272
REMARK  107  A    between atoms: _271  and  _274
REMARK  108  A    between atoms: _274  and  _275
REMARK  109  A    between atoms: _280  and  _282
REMARK  110  A    between atoms: _282  and  _283
REMARK  111  A    between atoms: _282  and  _285
REMARK  112  A    between atoms: _285  and  _286
REMARK  113  A    between atoms: _289  and  _291
REMARK  114  A    between atoms: _291  and  _292
REMARK  115  A    between atoms: _291  and  _294
REMARK  116  A    between atoms: _294  and  _295
REMARK  117  A    between atoms: _300  and  _302
REMARK  118  A    between atoms: _302  and  _303
REMARK  119  A    between atoms: _302  and  _305
REMARK  120  A    between atoms: _305  and  _306
REMARK  121  A    between atoms: _311  and  _313
REMARK  122  A    between atoms: _313  and  _314
REMARK  123  A    between atoms: _313  and  _316
REMARK  124  A    between atoms: _316  and  _317
REMARK  125  A    between atoms: _320  and  _322
REMARK  126  A    between atoms: _322  and  _323
REMARK  127  A    between atoms: _322  and  _325
REMARK  128  A    between atoms: _328  and  _330
REMARK  129  A    between atoms: _330  and  _331
REMARK  130  A    between atoms: _330  and  _333
REMARK  131  A    between atoms: _333  and  _334
REMARK  132  A    between atoms: _337  and  _339
REMARK  133  A    between atoms: _339  and  _340
REMARK  134  A    between atoms: _339  and  _342
REMARK  135  A    between atoms: _342  and  _343
REMARK  136  A    between atoms: _343  and  _344
REMARK  137  A    between atoms: _347  and  _349
REMARK  138  A    between atoms: _349  and  _350
REMARK  139  A    between atoms: _353  and  _355
REMARK  140  A    between atoms: _355  and  _356
REMARK  141  A    between atoms: _355  and  _358
REMARK  142  A    between atoms: _358  and  _359
REMARK  143  A    between atoms: _362  and  _364
REMARK  144  A    between atoms: _364  and  _365
REMARK  145  A    between atoms: _364  and  _367
REMARK  146  A    between atoms: _367  and  _368
REMARK  147  A    between atoms: _368  and  _369
REMARK  148  A    between atoms: _372  and  _374
REMARK  149  A    between atoms: _374  and  _375
REMARK  150  A    between atoms: _374  and  _377
REMARK  151  A    between atoms: _377  and  _378
REMARK  152  A    between atoms: _383  and  _385
REMARK  153  A    between atoms: _385  and  _386
REMARK  154  A    between atoms: _388  and  _390
REMARK  155  A    between atoms: _390  and  _391
REMARK  156  A    between atoms: _390  and  _393
REMARK  157  A    between atoms: _396  and  _398
REMARK  158  A    between atoms: _398  and  _399
REMARK  159  A    between atoms: _402  and  _404
REMARK  160  A    between atoms: _404  and  _405
REMARK  161  A    between atoms: _404  and  _407
REMARK  162  A    between atoms: _407  and  _408
REMARK  163  A    between atoms: _413  and  _415
REMARK  164  A    between atoms: _415  and  _416
REMARK  165  A    between atoms: _415  and  _418
REMARK  166  A    between atoms: _418  and  _419
REMARK  167  A    between atoms: _419  and  _420
REMARK  168  A    between atoms: _420  and  _421
REMARK  169  A    between atoms: _421  and  _422
REMARK  170  A    between atoms: _426  and  _428
REMARK  171  A    between atoms: _428  and  _429
REMARK  172  A    between atoms: _428  and  _431
REMARK  173  A    between atoms: _431  and  _432
REMARK  174  A    between atoms: _435  and  _437
REMARK  175  A    between atoms: _437  and  _438
REMARK  176  A    between atoms: _437  and  _440
REMARK  177  A    between atoms: _440  and  _441
REMARK  178  A    between atoms: _446  and  _448
REMARK  179  A    between atoms: _448  and  _449
REMARK  180  A    between atoms: _451  and  _453
REMARK  181  A    between atoms: _453  and  _454
REMARK  182  A    between atoms: _453  and  _456
REMARK  183  A    between atoms: _456  and  _457
REMARK  184  A    between atoms: _457  and  _458
REMARK  185  A    between atoms: _458  and  _459
REMARK  186  A    between atoms: _459  and  _460
REMARK  187  A    between atoms: _464  and  _466
REMARK  188  A    between atoms: _466  and  _467
REMARK  189  A    between atoms: _466  and  _469
REMARK  190  A    between atoms: _469  and  _470
REMARK  191  A    between atoms: _470  and  _471
REMARK  192  A    between atoms: _471  and  _472
REMARK  193  A    between atoms: _481  and  _483
REMARK  194  A    between atoms: _483  and  _484
REMARK  195  A    between atoms: _483  and  _486
REMARK  196  A    between atoms: _486  and  _487
REMARK  197  A    between atoms: _492  and  _494
REMARK  198  A    between atoms: _494  and  _495
REMARK  199  A    between atoms: _494  and  _497
REMARK  200  A    between atoms: _497  and  _498
REMARK  201  A    between atoms: _503  and  _504
REMARK  202  A    between atoms: _506  and  _508
REMARK  203  A    between atoms: _508  and  _509
REMARK  204  A    between atoms: _508  and  _511
REMARK  205  A    between atoms: _511  and  _512
REMARK  206  A    between atoms: _512  and  _513
REMARK  207  A    between atoms: _513  and  _514
REMARK  208  A    between atoms: _514  and  _515
REMARK  209  A    between atoms: _519  and  _521
REMARK  210  A    between atoms: _521  and  _522
REMARK  211  A    between atoms: _521  and  _524
REMARK  212  A    between atoms: _524  and  _525
REMARK  213  A    between atoms: _527  and  _529
REMARK  214  A    between atoms: _529  and  _530
REMARK  215  A    between atoms: _529  and  _532
REMARK  216  A    between atoms: _532  and  _533
REMARK  217  A    between atoms: _536  and  _538
REMARK  218  A    between atoms: _538  and  _539
REMARK  219  A    between atoms: _538  and  _541
REMARK  220  A    between atoms: _541  and  _542
REMARK  221  A    between atoms: _542  and  _543
REMARK  222  A    between atoms: _546  and  _548
REMARK  223  A    between atoms: _548  and  _549
REMARK  224  A    between atoms: _552  and  _554
REMARK  225  A    between atoms: _554  and  _555
REMARK  226  A    between atoms: _554  and  _557
REMARK  227  A    between atoms: _557  and  _558
REMARK  228  A    between atoms: _560  and  _562
REMARK  229  A    between atoms: _562  and  _563
REMARK  230  A    between atoms: _565  and  _567
REMARK  231  A    between atoms: _567  and  _568
REMARK  232  A    between atoms: _567  and  _570
REMARK  233  A    between atoms: _570  and  _571
REMARK  234  A    between atoms: _574  and  _576
REMARK  235  A    between atoms: _576  and  _577
REMARK  236  A    between atoms: _579  and  _581
REMARK  237  A    between atoms: _581  and  _582
REMARK  238  A    between atoms: _581  and  _584
REMARK  239  A    between atoms: _584  and  _585
REMARK  240  A    between atoms: _590  and  _592
REMARK  241  A    between atoms: _592  and  _593
REMARK  242  A    between atoms: _592  and  _595
REMARK  243  A    between atoms: _595  and  _596
REMARK  244  A    between atoms: _596  and  _597
REMARK  245  A    between atoms: _604  and  _605
REMARK  246  A    between atoms: _605  and  _621
REMARK  247  A    between atoms: _606  and  _608
REMARK  248  A    between atoms: _608  and  _609
REMARK  249  A    between atoms: _609  and  _610
REMARK  250  A    between atoms: _614  and  _616
REMARK  251  A    between atoms: _616  and  _617
REMARK  252  A    between atoms: _616  and  _624
REMARK  253  A    between atoms: _617  and  _618
REMARK  254  A    between atoms: _618  and  _619
REMARK  255  A    between atoms: _619  and  _620
REMARK  256  A    between atoms: _620  and  _621
REMARK  257  A    between atoms: _626  and  _628
REMARK  258  A    between atoms: _628  and  _629
REMARK  259  A    between atoms: _628  and  _631
REMARK  260  A    between atoms: _631  and  _632
REMARK  261  A    between atoms: _635  and  _637
REMARK  262  A    between atoms: _637  and  _638
REMARK  263  A    between atoms: _640  and  _642
REMARK  264  A    between atoms: _642  and  _643
REMARK  265  A    between atoms: _646  and  _648
REMARK  266  A    between atoms: _648  and  _649
REMARK  267  A    between atoms: _648  and  _651
REMARK  268  A    between atoms: _651  and  _652
REMARK  269  A    between atoms: _657  and  _658
REMARK                            x       y       z     vdW  Elec       q    Type
REMARK                         _______ _______ _______ _____ _____    ______ ____
ROOT
ATOM      1  CG  TYR A   1      33.998   7.488  28.401  0.00  0.00    -0.020 A 
ATOM      2  CD2 TYR A   1      35.171   8.043  28.911  0.00  0.00    -0.001 A 
ATOM      3  CE2 TYR A   1      35.491   9.383  28.691  0.00  0.00    +0.036 A 
ATOM      4  CZ  TYR A   1      34.629  10.178  27.961  0.00  0.00    +0.134 A 
ATOM      5  CE1 TYR A   1      33.453   9.652  27.450  0.00  0.00    +0.036 A 
ATOM      6  CD1 TYR A   1      33.145   8.312  27.670  0.00  0.00    -0.001 A 
ENDROOT
BRANCH   4   7
ATOM      7  OH  TYR A   1      34.929  11.504  27.743  0.00  0.00    -0.506 OA
ATOM      8  HH  TYR A   1      34.989  11.672  26.769  0.00  0.00    +0.292 HD
ENDBRANCH   4   7
BRANCH   1   9
ATOM      9  CB  TYR A   1      33.649   6.038  28.654  0.00  0.00    +0.051 C 
BRANCH   9  10
ATOM     10  CA  TYR A   1      34.208   5.036  27.640  0.00  0.00    +0.137 C 
BRANCH  10  11
ATOM     11  N   TYR A   1      33.307   4.896  26.488  0.00  0.00    -0.239 NA
ATOM     12  H   TYR A   1      32.469   5.508  26.418  0.00  0.00    +0.142 HD
ENDBRANCH  10  11
BRANCH  10  13
ATOM     13  C   TYR A   1      34.419   3.687  28.339  0.00  0.00    +0.224 C 
ATOM     14  O   TYR A   1      35.544   3.307  28.656  0.00  0.00    -0.287 OA
ENDBRANCH  10  13
ENDBRANCH   9  10
ENDBRANCH   1   9
TORSDOF 5
REMARK  Name = ../refined-set-2016/2qrp/2qrp_pocket.pdb
REMARK  269 active torsions:
REMARK  status: ('A' for Active; 'I' for Inactive)
REMARK    1  A    between atoms: _1  and  _3
REMARK    2  A    between atoms: _3  and  _4
REMARK    3  A    between atoms: _3  and  _6
REMARK    4  A    between atoms: _6  and  _7
REMARK    5  A    between atoms: _12  and  _13
REMARK    6  A    between atoms: _15  and  _17
REMARK    7  A    between atoms: _17  and  _18
REMARK    8  A    between atoms: _17  and  _20
REMARK    9  A    between atoms: _20  and  _21
REMARK   10  A    between atoms: _24  and  _26
REMARK   11  A    between atoms: _26  and  _27
REMARK   12  A    between atoms: _26  and  _29
REMARK   13  A    between atoms: _29  and  _30
REMARK   14  A    between atoms: _30  and  _31
REMARK   15  A    between atoms: _34  and  _36
REMARK   16  A    between atoms: _36  and  _37
REMARK   17  A    between atoms: _39  and  _41
REMARK   18  A    between atoms: _41  and  _42
REMARK   19  A    between atoms: _41  and  _44
REMARK   20  A    between atoms: _44  and  _45
REMARK   21  A    between atoms: _50  and  _52
REMARK   22  A    between atoms: _52  and  _53
REMARK   23  A    between atoms: _55  and  _57
REMARK   24  A    between atoms: _57  and  _58
REMARK   25  A    between atoms: _60  and  _62
REMARK   26  A    between atoms: _62  and  _63
REMARK   27  A    between atoms: _62  and  _65
REMARK   28  A    between atoms: _65  and  _66
REMARK   29  A    between atoms: _69  and  _71
REMARK   30  A    between atoms: _71  and  _72
REMARK   31  A    between atoms: _74  and  _76
REMARK   32  A    between atoms: _76  and  _77
REMARK   33  A    between atoms: _76  and  _79
REMARK   34  A    between atoms: _79  and  _80
REMARK   35  A    between atoms: _80  and  _81
REMARK   36  A    between atoms: _81  and  _82
REMARK   37  A    between atoms: _91  and  _93
REMARK   38  A    between atoms: _93  and  _94
REMARK   39  A    between atoms: _93  and  _96
REMARK   40  A    between atoms: _96  and  _97
REMARK   41  A    between atoms: _100  and  _102
REMARK   42  A    between atoms: _102  and  _103
REMARK   43  A    between atoms: _106  and  _108
REMARK   44  A    between atoms: _108  and  _109
REMARK   45  A    between atoms: _108  and  _111
REMARK   46  A    between atoms: _111  and  _112
REMARK   47  A    between atoms: _118  and  _120
REMARK   48  A    between atoms: _120  and  _121
REMARK   49  A    between atoms: _120  and  _123
REMARK   50  A    between atoms: _123  and  _124
REMARK   51  A    between atoms: _127  and  _129
REMARK   52  A    between atoms: _129  and  _130
REMARK   53  A    between atoms: _129  and  _132
REMARK   54  A    between atoms: _132  and  _133
REMARK   55  A    between atoms: _138  and  _139
REMARK   56  A    between atoms: _142  and  _143
REMARK   57  A    between atoms: _148  and  _150
REMARK   58  A    between atoms: _150  and  _151
REMARK   59  A    between atoms: _150  and  _153
REMARK   60  A    between atoms: _153  and  _154
REMARK   61  A    between atoms: _159  and  _161
REMARK   62  A    between atoms: _161  and  _162
REMARK   63  A    between atoms: _161  and  _164
REMARK   64  A    between atoms: _164  and  _165
REMARK   65  A    between atoms: _168  and  _170
REMARK   66  A    between atoms: _170  and  _171
REMARK   67  A    between atoms: _170  and  _173
REMARK   68  A    between atoms: _173  and  _174
REMARK   69  A    between atoms: _179  and  _181
REMARK   70  A    between atoms: _181  and  _182
REMARK   71  A    between atoms: _181  and  _184
REMARK   72  A    between atoms: _184  and  _185
REMARK   73  A    between atoms: _191  and  _193
REMARK   74  A    between atoms: _193  and  _194
REMARK   75  A    between atoms: _193  and  _196
REMARK   76  A    between atoms: _196  and  _197
REMARK   77  A    between atoms: _203  and  _205
REMARK   78  A    between atoms: _205  and  _206
REMARK   79  A    between atoms: _205  and  _208
REMARK   80  A    between atoms: _208  and  _209
REMARK   81  A    between atoms: _209  and  _210
REMARK   82  A    between atoms: _213  and  _215
REMARK   83  A    between atoms: _215  and  _216
REMARK   84  A    between atoms: _215  and  _218
REMARK   85  A    between atoms: _218  and  _219
REMARK   86  A    between atoms: _219  and  _220
REMARK   87  A    between atoms: _220  and  _221
REMARK   88  A    between atoms: _230  and  _232
REMARK   89  A    between atoms: _232  and  _233
REMARK   90  A    between atoms: _232  and  _235
REMARK   91  A    between atoms: _235  and  _236
REMARK   92  A    between atoms: _236  and  _237
REMARK   93  A    between atoms: _240  and  _242
REMARK   94  A    between atoms: _242  and  _243
REMARK   95  A    between atoms: _242  and  _245
REMARK   96  A    between atoms: _245  and  _246
REMARK   97  A    between atoms: _251  and  _253
REMARK   98  A    between atoms: _253  and  _254
REMARK   99  A    between atoms: _253  and  _256
REMARK  100  A    between atoms: _256  and  _257
REMARK  101  A    between atoms: _260  and  _262
REMARK  102  A    between atoms: _262  and  _263
REMARK  103  A    between atoms: _262  and  _265
REMARK  104  A    between atoms: _265  and  _266
REMARK  105  A    between atoms: _269  and  _271
REMARK  106  A    between atoms: _271  and  _272
REMARK  107  A    between atoms: _271  and  _274
REMARK  108  A    between atoms: _274  and  _275
REMARK  109  A    between atoms: _280  and  _282
REMARK  110  A    between atoms: _282  and  _283
REMARK  111  A    between atoms: _282  and  _285
REMARK  112  A    between atoms: _285  and  _286
REMARK  113  A    between atoms: _289  and  _291
REMARK  114  A    between atoms: _291  and  _292
REMARK  115  A    between atoms: _291  and  _294
REMARK  116  A    between atoms: _294  and  _295
REMARK  117  A    between atoms: _300  and  _302
REMARK  118  A    between atoms: _302  and  _303
REMARK  119  A    between atoms: _302  and  _305
REMARK  120  A    between atoms: _305  and  _306
REMARK  121  A    between atoms: _311  and  _313
REMARK  122  A    between atoms: _313  and  _314
REMARK  123  A    between atoms: _313  and  _316
REMARK  124  A    between atoms: _316  and  _317
REMARK  125  A    between atoms: _320  and  _322
REMARK  126  A    between atoms: _322  and  _323
REMARK  127  A    between atoms: _322  and  _325
REMARK  128  A    between atoms: _328  and  _330
REMARK  129  A    between atoms: _330  and  _331
REMARK  130  A    between atoms: _330  and  _333
REMARK  131  A    between atoms: _333  and  _334
REMARK  132  A    between atoms: _337  and  _339
REMARK  133  A    between atoms: _339  and  _340
REMARK  134  A    between atoms: _339  and  _342
REMARK  135  A    between atoms: _342  and  _343
REMARK  136  A    between atoms: _343  and  _344
REMARK  137  A    between atoms: _347  and  _349
REMARK  138  A    between atoms: _349  and  _350
REMARK  139  A    between atoms: _353  and  _355
REMARK  140  A    between atoms: _355  and  _356
REMARK  141  A    between atoms: _355  and  _358
REMARK  142  A    between atoms: _358  and  _359
REMARK  143  A    between atoms: _362  and  _364
REMARK  144  A    between atoms: _364  and  _365
REMARK  145  A    between atoms: _364  and  _367
REMARK  146  A    between atoms: _367  and  _368
REMARK  147  A    between atoms: _368  and  _369
REMARK  148  A    between atoms: _372  and  _374
REMARK  149  A    between atoms: _374  and  _375
REMARK  150  A    between atoms: _374  and  _377
REMARK  151  A    between atoms: _377  and  _378
REMARK  152  A    between atoms: _383  and  _385
REMARK  153  A    between atoms: _385  and  _386
REMARK  154  A    between atoms: _388  and  _390
REMARK  155  A    between atoms: _390  and  _391
REMARK  156  A    between atoms: _390  and  _393
REMARK  157  A    between atoms: _396  and  _398
REMARK  158  A    between atoms: _398  and  _399
REMARK  159  A    between atoms: _402  and  _404
REMARK  160  A    between atoms: _404  and  _405
REMARK  161  A    between atoms: _404  and  _407
REMARK  162  A    between atoms: _407  and  _408
REMARK  163  A    between atoms: _413  and  _415
REMARK  164  A    between atoms: _415  and  _416
REMARK  165  A    between atoms: _415  and  _418
REMARK  166  A    between atoms: _418  and  _419
REMARK  167  A    between atoms: _419  and  _420
REMARK  168  A    between atoms: _420  and  _421
REMARK  169  A    between atoms: _421  and  _422
REMARK  170  A    between atoms: _426  and  _428
REMARK  171  A    between atoms: _428  and  _429
REMARK  172  A    between atoms: _428  and  _431
REMARK  173  A    between atoms: _431  and  _432
REMARK  174  A    between atoms: _435  and  _437
REMARK  175  A    between atoms: _437  and  _438
REMARK  176  A    between atoms: _437  and  _440
REMARK  177  A    between atoms: _440  and  _441
REMARK  178  A    between atoms: _446  and  _448
REMARK  179  A    between atoms: _448  and  _449
REMARK  180  A    between atoms: _451  and  _453
REMARK  181  A    between atoms: _453  and  _454
REMARK  182  A    between atoms: _453  and  _456
REMARK  183  A    between atoms: _456  and  _457
REMARK  184  A    between atoms: _457  and  _458
REMARK  185  A    between atoms: _458  and  _459
REMARK  186  A    between atoms: _459  and  _460
REMARK  187  A    between atoms: _464  and  _466
REMARK  188  A    between atoms: _466  and  _467
REMARK  189  A    between atoms: _466  and  _469
REMARK  190  A    between atoms: _469  and  _470
REMARK  191  A    between atoms: _470  and  _471
REMARK  192  A    between atoms: _471  and  _472
REMARK  193  A    between atoms: _481  and  _483
REMARK  194  A    between atoms: _483  and  _484
REMARK  195  A    between atoms: _483  and  _486
REMARK  196  A    between atoms: _486  and  _487
REMARK  197  A    between atoms: _492  and  _494
REMARK  198  A    between atoms: _494  and  _495
REMARK  199  A    between atoms: _494  and  _497
REMARK  200  A    between atoms: _497  and  _498
REMARK  201  A    between atoms: _503  and  _504
REMARK  202  A    between atoms: _506  and  _508
REMARK  203  A    between atoms: _508  and  _509
REMARK  204  A    between atoms: _508  and  _511
REMARK  205  A    between atoms: _511  and  _512
REMARK  206  A    between atoms: _512  and  _513
REMARK  207  A    between atoms: _513  and  _514
REMARK  208  A    between atoms: _514  and  _515
REMARK  209  A    between atoms: _519  and  _521
REMARK  210  A    between atoms: _521  and  _522
REMARK  211  A    between atoms: _521  and  _524
REMARK  212  A    between atoms: _524  and  _525
REMARK  213  A    between atoms: _527  and  _529
REMARK  214  A    between atoms: _529  and  _530
REMARK  215  A    between atoms: _529  and  _532
REMARK  216  A    between atoms: _532  and  _533
REMARK  217  A    between atoms: _536  and  _538
REMARK  218  A    between atoms: _538  and  _539
REMARK  219  A    between atoms: _538  and  _541
REMARK  220  A    between atoms: _541  and  _542
REMARK  221  A    between atoms: _542  and  _543
REMARK  222  A    between atoms: _546  and  _548
REMARK  223  A    between atoms: _548  and  _549
REMARK  224  A    between atoms: _552  and  _554
REMARK  225  A    between atoms: _554  and  _555
REMARK  226  A    between atoms: _554  and  _557
REMARK  227  A    between atoms: _557  and  _558
REMARK  228  A    between atoms: _560  and  _562
REMARK  229  A    between atoms: _562  and  _563
REMARK  230  A    between atoms: _565  and  _567
REMARK  231  A    between atoms: _567  and  _568
REMARK  232  A    between atoms: _567  and  _570
REMARK  233  A    between atoms: _570  and  _571
REMARK  234  A    between atoms: _574  and  _576
REMARK  235  A    between atoms: _576  and  _577
REMARK  236  A    between atoms: _579  and  _581
REMARK  237  A    between atoms: _581  and  _582
REMARK  238  A    between atoms: _581  and  _584
REMARK  239  A    between atoms: _584  and  _585
REMARK  240  A    between atoms: _590  and  _592
REMARK  241  A    between atoms: _592  and  _593
REMARK  242  A    between atoms: _592  and  _595
REMARK  243  A    between atoms: _595  and  _596
REMARK  244  A    between atoms: _596  and  _597
REMARK  245  A    between atoms: _604  and  _605
REMARK  246  A    between atoms: _605  and  _621
REMARK  247  A    between atoms: _606  and  _608
REMARK  248  A    between atoms: _608  and  _609
REMARK  249  A    between atoms: _609  and  _610
REMARK  250  A    between atoms: _614  and  _616
REMARK  251  A    between atoms: _616  and  _617
REMARK  252  A    between atoms: _616  and  _624
REMARK  253  A    between atoms: _617  and  _618
REMARK  254  A    between atoms: _618  and  _619
REMARK  255  A    between atoms: _619  and  _620
REMARK  256  A    between atoms: _620  and  _621
REMARK  257  A    between atoms: _626  and  _628
REMARK  258  A    between atoms: _628  and  _629
REMARK  259  A    between atoms: _628  and  _631
REMARK  260  A    between atoms: _631  and  _632
REMARK  261  A    between atoms: _635  and  _637
REMARK  262  A    between atoms: _637  and  _638
REMARK  263  A    between atoms: _640  and  _642
REMARK  264  A    between atoms: _642  and  _643
REMARK  265  A    between atoms: _646  and  _648
REMARK  266  A    between atoms: _648  and  _649
REMARK  267  A    between atoms: _648  and  _651
REMARK  268  A    between atoms: _651  and  _652
REMARK  269  A    between atoms: _657  and  _658
REMARK                            x       y       z     vdW  Elec       q    Type
REMARK                         _______ _______ _______ _____ _____    ______ ____
ROOT
ATOM      1  O   HOH     1      33.224  12.562  25.918  0.00  0.00    +0.000 OA
ENDROOT
TORSDOF 0
REMARK  Name = ../refined-set-2016/2qrp/2qrp_pocket.pdb
REMARK  269 active torsions:
REMARK  status: ('A' for Active; 'I' for Inactive)
REMARK    1  A    between atoms: _1  and  _3
REMARK    2  A    between atoms: _3  and  _4
REMARK    3  A    between atoms: _3  and  _6
REMARK    4  A    between atoms: _6  and  _7
REMARK    5  A    between atoms: _12  and  _13
REMARK    6  A    between atoms: _15  and  _17
REMARK    7  A    between atoms: _17  and  _18
REMARK    8  A    between atoms: _17  and  _20
REMARK    9  A    between atoms: _20  and  _21
REMARK   10  A    between atoms: _24  and  _26
REMARK   11  A    between atoms: _26  and  _27
REMARK   12  A    between atoms: _26  and  _29
REMARK   13  A    between atoms: _29  and  _30
REMARK   14  A    between atoms: _30  and  _31
REMARK   15  A    between atoms: _34  and  _36
REMARK   16  A    between atoms: _36  and  _37
REMARK   17  A    between atoms: _39  and  _41
REMARK   18  A    between atoms: _41  and  _42
REMARK   19  A    between atoms: _41  and  _44
REMARK   20  A    between atoms: _44  and  _45
REMARK   21  A    between atoms: _50  and  _52
REMARK   22  A    between atoms: _52  and  _53
REMARK   23  A    between atoms: _55  and  _57
REMARK   24  A    between atoms: _57  and  _58
REMARK   25  A    between atoms: _60  and  _62
REMARK   26  A    between atoms: _62  and  _63
REMARK   27  A    between atoms: _62  and  _65
REMARK   28  A    between atoms: _65  and  _66
REMARK   29  A    between atoms: _69  and  _71
REMARK   30  A    between atoms: _71  and  _72
REMARK   31  A    between atoms: _74  and  _76
REMARK   32  A    between atoms: _76  and  _77
REMARK   33  A    between atoms: _76  and  _79
REMARK   34  A    between atoms: _79  and  _80
REMARK   35  A    between atoms: _80  and  _81
REMARK   36  A    between atoms: _81  and  _82
REMARK   37  A    between atoms: _91  and  _93
REMARK   38  A    between atoms: _93  and  _94
REMARK   39  A    between atoms: _93  and  _96
REMARK   40  A    between atoms: _96  and  _97
REMARK   41  A    between atoms: _100  and  _102
REMARK   42  A    between atoms: _102  and  _103
REMARK   43  A    between atoms: _106  and  _108
REMARK   44  A    between atoms: _108  and  _109
REMARK   45  A    between atoms: _108  and  _111
REMARK   46  A    between atoms: _111  and  _112
REMARK   47  A    between atoms: _118  and  _120
REMARK   48  A    between atoms: _120  and  _121
REMARK   49  A    between atoms: _120  and  _123
REMARK   50  A    between atoms: _123  and  _124
REMARK   51  A    between atoms: _127  and  _129
REMARK   52  A    between atoms: _129  and  _130
REMARK   53  A    between atoms: _129  and  _132
REMARK   54  A    between atoms: _132  and  _133
REMARK   55  A    between atoms: _138  and  _139
REMARK   56  A    between atoms: _142  and  _143
REMARK   57  A    between atoms: _148  and  _150
REMARK   58  A    between atoms: _150  and  _151
REMARK   59  A    between atoms: _150  and  _153
REMARK   60  A    between atoms: _153  and  _154
REMARK   61  A    between atoms: _159  and  _161
REMARK   62  A    between atoms: _161  and  _162
REMARK   63  A    between atoms: _161  and  _164
REMARK   64  A    between atoms: _164  and  _165
REMARK   65  A    between atoms: _168  and  _170
REMARK   66  A    between atoms: _170  and  _171
REMARK   67  A    between atoms: _170  and  _173
REMARK   68  A    between atoms: _173  and  _174
REMARK   69  A    between atoms: _179  and  _181
REMARK   70  A    between atoms: _181  and  _182
REMARK   71  A    between atoms: _181  and  _184
REMARK   72  A    between atoms: _184  and  _185
REMARK   73  A    between atoms: _191  and  _193
REMARK   74  A    between atoms: _193  and  _194
REMARK   75  A    between atoms: _193  and  _196
REMARK   76  A    between atoms: _196  and  _197
REMARK   77  A    between atoms: _203  and  _205
REMARK   78  A    between atoms: _205  and  _206
REMARK   79  A    between atoms: _205  and  _208
REMARK   80  A    between atoms: _208  and  _209
REMARK   81  A    between atoms: _209  and  _210
REMARK   82  A    between atoms: _213  and  _215
REMARK   83  A    between atoms: _215  and  _216
REMARK   84  A    between atoms: _215  and  _218
REMARK   85  A    between atoms: _218  and  _219
REMARK   86  A    between atoms: _219  and  _220
REMARK   87  A    between atoms: _220  and  _221
REMARK   88  A    between atoms: _230  and  _232
REMARK   89  A    between atoms: _232  and  _233
REMARK   90  A    between atoms: _232  and  _235
REMARK   91  A    between atoms: _235  and  _236
REMARK   92  A    between atoms: _236  and  _237
REMARK   93  A    between atoms: _240  and  _242
REMARK   94  A    between atoms: _242  and  _243
REMARK   95  A    between atoms: _242  and  _245
REMARK   96  A    between atoms: _245  and  _246
REMARK   97  A    between atoms: _251  and  _253
REMARK   98  A    between atoms: _253  and  _254
REMARK   99  A    between atoms: _253  and  _256
REMARK  100  A    between atoms: _256  and  _257
REMARK  101  A    between atoms: _260  and  _262
REMARK  102  A    between atoms: _262  and  _263
REMARK  103  A    between atoms: _262  and  _265
REMARK  104  A    between atoms: _265  and  _266
REMARK  105  A    between atoms: _269  and  _271
REMARK  106  A    between atoms: _271  and  _272
REMARK  107  A    between atoms: _271  and  _274
REMARK  108  A    between atoms: _274  and  _275
REMARK  109  A    between atoms: _280  and  _282
REMARK  110  A    between atoms: _282  and  _283
REMARK  111  A    between atoms: _282  and  _285
REMARK  112  A    between atoms: _285  and  _286
REMARK  113  A    between atoms: _289  and  _291
REMARK  114  A    between atoms: _291  and  _292
REMARK  115  A    between atoms: _291  and  _294
REMARK  116  A    between atoms: _294  and  _295
REMARK  117  A    between atoms: _300  and  _302
REMARK  118  A    between atoms: _302  and  _303
REMARK  119  A    between atoms: _302  and  _305
REMARK  120  A    between atoms: _305  and  _306
REMARK  121  A    between atoms: _311  and  _313
REMARK  122  A    between atoms: _313  and  _314
REMARK  123  A    between atoms: _313  and  _316
REMARK  124  A    between atoms: _316  and  _317
REMARK  125  A    between atoms: _320  and  _322
REMARK  126  A    between atoms: _322  and  _323
REMARK  127  A    between atoms: _322  and  _325
REMARK  128  A    between atoms: _328  and  _330
REMARK  129  A    between atoms: _330  and  _331
REMARK  130  A    between atoms: _330  and  _333
REMARK  131  A    between atoms: _333  and  _334
REMARK  132  A    between atoms: _337  and  _339
REMARK  133  A    between atoms: _339  and  _340
REMARK  134  A    between atoms: _339  and  _342
REMARK  135  A    between atoms: _342  and  _343
REMARK  136  A    between atoms: _343  and  _344
REMARK  137  A    between atoms: _347  and  _349
REMARK  138  A    between atoms: _349  and  _350
REMARK  139  A    between atoms: _353  and  _355
REMARK  140  A    between atoms: _355  and  _356
REMARK  141  A    between atoms: _355  and  _358
REMARK  142  A    between atoms: _358  and  _359
REMARK  143  A    between atoms: _362  and  _364
REMARK  144  A    between atoms: _364  and  _365
REMARK  145  A    between atoms: _364  and  _367
REMARK  146  A    between atoms: _367  and  _368
REMARK  147  A    between atoms: _368  and  _369
REMARK  148  A    between atoms: _372  and  _374
REMARK  149  A    between atoms: _374  and  _375
REMARK  150  A    between atoms: _374  and  _377
REMARK  151  A    between atoms: _377  and  _378
REMARK  152  A    between atoms: _383  and  _385
REMARK  153  A    between atoms: _385  and  _386
REMARK  154  A    between atoms: _388  and  _390
REMARK  155  A    between atoms: _390  and  _391
REMARK  156  A    between atoms: _390  and  _393
REMARK  157  A    between atoms: _396  and  _398
REMARK  158  A    between atoms: _398  and  _399
REMARK  159  A    between atoms: _402  and  _404
REMARK  160  A    between atoms: _404  and  _405
REMARK  161  A    between atoms: _404  and  _407
REMARK  162  A    between atoms: _407  and  _408
REMARK  163  A    between atoms: _413  and  _415
REMARK  164  A    between atoms: _415  and  _416
REMARK  165  A    between atoms: _415  and  _418
REMARK  166  A    between atoms: _418  and  _419
REMARK  167  A    between atoms: _419  and  _420
REMARK  168  A    between atoms: _420  and  _421
REMARK  169  A    between atoms: _421  and  _422
REMARK  170  A    between atoms: _426  and  _428
REMARK  171  A    between atoms: _428  and  _429
REMARK  172  A    between atoms: _428  and  _431
REMARK  173  A    between atoms: _431  and  _432
REMARK  174  A    between atoms: _435  and  _437
REMARK  175  A    between atoms: _437  and  _438
REMARK  176  A    between atoms: _437  and  _440
REMARK  177  A    between atoms: _440  and  _441
REMARK  178  A    between atoms: _446  and  _448
REMARK  179  A    between atoms: _448  and  _449
REMARK  180  A    between atoms: _451  and  _453
REMARK  181  A    between atoms: _453  and  _454
REMARK  182  A    between atoms: _453  and  _456
REMARK  183  A    between atoms: _456  and  _457
REMARK  184  A    between atoms: _457  and  _458
REMARK  185  A    between atoms: _458  and  _459
REMARK  186  A    between atoms: _459  and  _460
REMARK  187  A    between atoms: _464  and  _466
REMARK  188  A    between atoms: _466  and  _467
REMARK  189  A    between atoms: _466  and  _469
REMARK  190  A    between atoms: _469  and  _470
REMARK  191  A    between atoms: _470  and  _471
REMARK  192  A    between atoms: _471  and  _472
REMARK  193  A    between atoms: _481  and  _483
REMARK  194  A    between atoms: _483  and  _484
REMARK  195  A    between atoms: _483  and  _486
REMARK  196  A    between atoms: _486  and  _487
REMARK  197  A    between atoms: _492  and  _494
REMARK  198  A    between atoms: _494  and  _495
REMARK  199  A    between atoms: _494  and  _497
REMARK  200  A    between atoms: _497  and  _498
REMARK  201  A    between atoms: _503  and  _504
REMARK  202  A    between atoms: _506  and  _508
REMARK  203  A    between atoms: _508  and  _509
REMARK  204  A    between atoms: _508  and  _511
REMARK  205  A    between atoms: _511  and  _512
REMARK  206  A    between atoms: _512  and  _513
REMARK  207  A    between atoms: _513  and  _514
REMARK  208  A    between atoms: _514  and  _515
REMARK  209  A    between atoms: _519  and  _521
REMARK  210  A    between atoms: _521  and  _522
REMARK  211  A    between atoms: _521  and  _524
REMARK  212  A    between atoms: _524  and  _525
REMARK  213  A    between atoms: _527  and  _529
REMARK  214  A    between atoms: _529  and  _530
REMARK  215  A    between atoms: _529  and  _532
REMARK  216  A    between atoms: _532  and  _533
REMARK  217  A    between atoms: _536  and  _538
REMARK  218  A    between atoms: _538  and  _539
REMARK  219  A    between atoms: _538  and  _541
REMARK  220  A    between atoms: _541  and  _542
REMARK  221  A    between atoms: _542  and  _543
REMARK  222  A    between atoms: _546  and  _548
REMARK  223  A    between atoms: _548  and  _549
REMARK  224  A    between atoms: _552  and  _554
REMARK  225  A    between atoms: _554  and  _555
REMARK  226  A    between atoms: _554  and  _557
REMARK  227  A    between atoms: _557  and  _558
REMARK  228  A    between atoms: _560  and  _562
REMARK  229  A    between atoms: _562  and  _563
REMARK  230  A    between atoms: _565  and  _567
REMARK  231  A    between atoms: _567  and  _568
REMARK  232  A    between atoms: _567  and  _570
REMARK  233  A    between atoms: _570  and  _571
REMARK  234  A    between atoms: _574  and  _576
REMARK  235  A    between atoms: _576  and  _577
REMARK  236  A    between atoms: _579  and  _581
REMARK  237  A    between atoms: _581  and  _582
REMARK  238  A    between atoms: _581  and  _584
REMARK  239  A    between atoms: _584  and  _585
REMARK  240  A    between atoms: _590  and  _592
REMARK  241  A    between atoms: _592  and  _593
REMARK  242  A    between atoms: _592  and  _595
REMARK  243  A    between atoms: _595  and  _596
REMARK  244  A    between atoms: _596  and  _597
REMARK  245  A    between atoms: _604  and  _605
REMARK  246  A    between atoms: _605  and  _621
REMARK  247  A    between atoms: _606  and  _608
REMARK  248  A    between atoms: _608  and  _609
REMARK  249  A    between atoms: _609  and  _610
REMARK  250  A    between atoms: _614  and  _616
REMARK  251  A    between atoms: _616  and  _617
REMARK  252  A    between atoms: _616  and  _624
REMARK  253  A    between atoms: _617  and  _618
REMARK  254  A    between atoms: _618  and  _619
REMARK  255  A    between atoms: _619  and  _620
REMARK  256  A    between atoms: _620  and  _621
REMARK  257  A    between atoms: _626  and  _628
REMARK  258  A    between atoms: _628  and  _629
REMARK  259  A    between atoms: _628  and  _631
REMARK  260  A    between atoms: _631  and  _632
REMARK  261  A    between atoms: _635  and  _637
REMARK  262  A    between atoms: _637  and  _638
REMARK  263  A    between atoms: _640  and  _642
REMARK  264  A    between atoms: _642  and  _643
REMARK  265  A    between atoms: _646  and  _648
REMARK  266  A    between atoms: _648  and  _649
REMARK  267  A    between atoms: _648  and  _651
REMARK  268  A    between atoms: _651  and  _652
REMARK  269  A    between atoms: _657  and  _658
REMARK                            x       y       z     vdW  Elec       q    Type
REMARK                         _______ _______ _______ _____ _____    ______ ____
ROOT
ATOM      1  O   HOH     1      26.658  19.050  28.508  0.00  0.00    +0.000 OA
ENDROOT
TORSDOF 0
REMARK  Name = ../refined-set-2016/2qrp/2qrp_pocket.pdb
REMARK  269 active torsions:
REMARK  status: ('A' for Active; 'I' for Inactive)
REMARK    1  A    between atoms: _1  and  _3
REMARK    2  A    between atoms: _3  and  _4
REMARK    3  A    between atoms: _3  and  _6
REMARK    4  A    between atoms: _6  and  _7
REMARK    5  A    between atoms: _12  and  _13
REMARK    6  A    between atoms: _15  and  _17
REMARK    7  A    between atoms: _17  and  _18
REMARK    8  A    between atoms: _17  and  _20
REMARK    9  A    between atoms: _20  and  _21
REMARK   10  A    between atoms: _24  and  _26
REMARK   11  A    between atoms: _26  and  _27
REMARK   12  A    between atoms: _26  and  _29
REMARK   13  A    between atoms: _29  and  _30
REMARK   14  A    between atoms: _30  and  _31
REMARK   15  A    between atoms: _34  and  _36
REMARK   16  A    between atoms: _36  and  _37
REMARK   17  A    between atoms: _39  and  _41
REMARK   18  A    between atoms: _41  and  _42
REMARK   19  A    between atoms: _41  and  _44
REMARK   20  A    between atoms: _44  and  _45
REMARK   21  A    between atoms: _50  and  _52
REMARK   22  A    between atoms: _52  and  _53
REMARK   23  A    between atoms: _55  and  _57
REMARK   24  A    between atoms: _57  and  _58
REMARK   25  A    between atoms: _60  and  _62
REMARK   26  A    between atoms: _62  and  _63
REMARK   27  A    between atoms: _62  and  _65
REMARK   28  A    between atoms: _65  and  _66
REMARK   29  A    between atoms: _69  and  _71
REMARK   30  A    between atoms: _71  and  _72
REMARK   31  A    between atoms: _74  and  _76
REMARK   32  A    between atoms: _76  and  _77
REMARK   33  A    between atoms: _76  and  _79
REMARK   34  A    between atoms: _79  and  _80
REMARK   35  A    between atoms: _80  and  _81
REMARK   36  A    between atoms: _81  and  _82
REMARK   37  A    between atoms: _91  and  _93
REMARK   38  A    between atoms: _93  and  _94
REMARK   39  A    between atoms: _93  and  _96
REMARK   40  A    between atoms: _96  and  _97
REMARK   41  A    between atoms: _100  and  _102
REMARK   42  A    between atoms: _102  and  _103
REMARK   43  A    between atoms: _106  and  _108
REMARK   44  A    between atoms: _108  and  _109
REMARK   45  A    between atoms: _108  and  _111
REMARK   46  A    between atoms: _111  and  _112
REMARK   47  A    between atoms: _118  and  _120
REMARK   48  A    between atoms: _120  and  _121
REMARK   49  A    between atoms: _120  and  _123
REMARK   50  A    between atoms: _123  and  _124
REMARK   51  A    between atoms: _127  and  _129
REMARK   52  A    between atoms: _129  and  _130
REMARK   53  A    between atoms: _129  and  _132
REMARK   54  A    between atoms: _132  and  _133
REMARK   55  A    between atoms: _138  and  _139
REMARK   56  A    between atoms: _142  and  _143
REMARK   57  A    between atoms: _148  and  _150
REMARK   58  A    between atoms: _150  and  _151
REMARK   59  A    between atoms: _150  and  _153
REMARK   60  A    between atoms: _153  and  _154
REMARK   61  A    between atoms: _159  and  _161
REMARK   62  A    between atoms: _161  and  _162
REMARK   63  A    between atoms: _161  and  _164
REMARK   64  A    between atoms: _164  and  _165
REMARK   65  A    between atoms: _168  and  _170
REMARK   66  A    between atoms: _170  and  _171
REMARK   67  A    between atoms: _170  and  _173
REMARK   68  A    between atoms: _173  and  _174
REMARK   69  A    between atoms: _179  and  _181
REMARK   70  A    between atoms: _181  and  _182
REMARK   71  A    between atoms: _181  and  _184
REMARK   72  A    between atoms: _184  and  _185
REMARK   73  A    between atoms: _191  and  _193
REMARK   74  A    between atoms: _193  and  _194
REMARK   75  A    between atoms: _193  and  _196
REMARK   76  A    between atoms: _196  and  _197
REMARK   77  A    between atoms: _203  and  _205
REMARK   78  A    between atoms: _205  and  _206
REMARK   79  A    between atoms: _205  and  _208
REMARK   80  A    between atoms: _208  and  _209
REMARK   81  A    between atoms: _209  and  _210
REMARK   82  A    between atoms: _213  and  _215
REMARK   83  A    between atoms: _215  and  _216
REMARK   84  A    between atoms: _215  and  _218
REMARK   85  A    between atoms: _218  and  _219
REMARK   86  A    between atoms: _219  and  _220
REMARK   87  A    between atoms: _220  and  _221
REMARK   88  A    between atoms: _230  and  _232
REMARK   89  A    between atoms: _232  and  _233
REMARK   90  A    between atoms: _232  and  _235
REMARK   91  A    between atoms: _235  and  _236
REMARK   92  A    between atoms: _236  and  _237
REMARK   93  A    between atoms: _240  and  _242
REMARK   94  A    between atoms: _242  and  _243
REMARK   95  A    between atoms: _242  and  _245
REMARK   96  A    between atoms: _245  and  _246
REMARK   97  A    between atoms: _251  and  _253
REMARK   98  A    between atoms: _253  and  _254
REMARK   99  A    between atoms: _253  and  _256
REMARK  100  A    between atoms: _256  and  _257
REMARK  101  A    between atoms: _260  and  _262
REMARK  102  A    between atoms: _262  and  _263
REMARK  103  A    between atoms: _262  and  _265
REMARK  104  A    between atoms: _265  and  _266
REMARK  105  A    between atoms: _269  and  _271
REMARK  106  A    between atoms: _271  and  _272
REMARK  107  A    between atoms: _271  and  _274
REMARK  108  A    between atoms: _274  and  _275
REMARK  109  A    between atoms: _280  and  _282
REMARK  110  A    between atoms: _282  and  _283
REMARK  111  A    between atoms: _282  and  _285
REMARK  112  A    between atoms: _285  and  _286
REMARK  113  A    between atoms: _289  and  _291
REMARK  114  A    between atoms: _291  and  _292
REMARK  115  A    between atoms: _291  and  _294
REMARK  116  A    between atoms: _294  and  _295
REMARK  117  A    between atoms: _300  and  _302
REMARK  118  A    between atoms: _302  and  _303
REMARK  119  A    between atoms: _302  and  _305
REMARK  120  A    between atoms: _305  and  _306
REMARK  121  A    between atoms: _311  and  _313
REMARK  122  A    between atoms: _313  and  _314
REMARK  123  A    between atoms: _313  and  _316
REMARK  124  A    between atoms: _316  and  _317
REMARK  125  A    between atoms: _320  and  _322
REMARK  126  A    between atoms: _322  and  _323
REMARK  127  A    between atoms: _322  and  _325
REMARK  128  A    between atoms: _328  and  _330
REMARK  129  A    between atoms: _330  and  _331
REMARK  130  A    between atoms: _330  and  _333
REMARK  131  A    between atoms: _333  and  _334
REMARK  132  A    between atoms: _337  and  _339
REMARK  133  A    between atoms: _339  and  _340
REMARK  134  A    between atoms: _339  and  _342
REMARK  135  A    between atoms: _342  and  _343
REMARK  136  A    between atoms: _343  and  _344
REMARK  137  A    between atoms: _347  and  _349
REMARK  138  A    between atoms: _349  and  _350
REMARK  139  A    between atoms: _353  and  _355
REMARK  140  A    between atoms: _355  and  _356
REMARK  141  A    between atoms: _355  and  _358
REMARK  142  A    between atoms: _358  and  _359
REMARK  143  A    between atoms: _362  and  _364
REMARK  144  A    between atoms: _364  and  _365
REMARK  145  A    between atoms: _364  and  _367
REMARK  146  A    between atoms: _367  and  _368
REMARK  147  A    between atoms: _368  and  _369
REMARK  148  A    between atoms: _372  and  _374
REMARK  149  A    between atoms: _374  and  _375
REMARK  150  A    between atoms: _374  and  _377
REMARK  151  A    between atoms: _377  and  _378
REMARK  152  A    between atoms: _383  and  _385
REMARK  153  A    between atoms: _385  and  _386
REMARK  154  A    between atoms: _388  and  _390
REMARK  155  A    between atoms: _390  and  _391
REMARK  156  A    between atoms: _390  and  _393
REMARK  157  A    between atoms: _396  and  _398
REMARK  158  A    between atoms: _398  and  _399
REMARK  159  A    between atoms: _402  and  _404
REMARK  160  A    between atoms: _404  and  _405
REMARK  161  A    between atoms: _404  and  _407
REMARK  162  A    between atoms: _407  and  _408
REMARK  163  A    between atoms: _413  and  _415
REMARK  164  A    between atoms: _415  and  _416
REMARK  165  A    between atoms: _415  and  _418
REMARK  166  A    between atoms: _418  and  _419
REMARK  167  A    between atoms: _419  and  _420
REMARK  168  A    between atoms: _420  and  _421
REMARK  169  A    between atoms: _421  and  _422
REMARK  170  A    between atoms: _426  and  _428
REMARK  171  A    between atoms: _428  and  _429
REMARK  172  A    between atoms: _428  and  _431
REMARK  173  A    between atoms: _431  and  _432
REMARK  174  A    between atoms: _435  and  _437
REMARK  175  A    between atoms: _437  and  _438
REMARK  176  A    between atoms: _437  and  _440
REMARK  177  A    between atoms: _440  and  _441
REMARK  178  A    between atoms: _446  and  _448
REMARK  179  A    between atoms: _448  and  _449
REMARK  180  A    between atoms: _451  and  _453
REMARK  181  A    between atoms: _453  and  _454
REMARK  182  A    between atoms: _453  and  _456
REMARK  183  A    between atoms: _456  and  _457
REMARK  184  A    between atoms: _457  and  _458
REMARK  185  A    between atoms: _458  and  _459
REMARK  186  A    between atoms: _459  and  _460
REMARK  187  A    between atoms: _464  and  _466
REMARK  188  A    between atoms: _466  and  _467
REMARK  189  A    between atoms: _466  and  _469
REMARK  190  A    between atoms: _469  and  _470
REMARK  191  A    between atoms: _470  and  _471
REMARK  192  A    between atoms: _471  and  _472
REMARK  193  A    between atoms: _481  and  _483
REMARK  194  A    between atoms: _483  and  _484
REMARK  195  A    between atoms: _483  and  _486
REMARK  196  A    between atoms: _486  and  _487
REMARK  197  A    between atoms: _492  and  _494
REMARK  198  A    between atoms: _494  and  _495
REMARK  199  A    between atoms: _494  and  _497
REMARK  200  A    between atoms: _497  and  _498
REMARK  201  A    between atoms: _503  and  _504
REMARK  202  A    between atoms: _506  and  _508
REMARK  203  A    between atoms: _508  and  _509
REMARK  204  A    between atoms: _508  and  _511
REMARK  205  A    between atoms: _511  and  _512
REMARK  206  A    between atoms: _512  and  _513
REMARK  207  A    between atoms: _513  and  _514
REMARK  208  A    between atoms: _514  and  _515
REMARK  209  A    between atoms: _519  and  _521
REMARK  210  A    between atoms: _521  and  _522
REMARK  211  A    between atoms: _521  and  _524
REMARK  212  A    between atoms: _524  and  _525
REMARK  213  A    between atoms: _527  and  _529
REMARK  214  A    between atoms: _529  and  _530
REMARK  215  A    between atoms: _529  and  _532
REMARK  216  A    between atoms: _532  and  _533
REMARK  217  A    between atoms: _536  and  _538
REMARK  218  A    between atoms: _538  and  _539
REMARK  219  A    between atoms: _538  and  _541
REMARK  220  A    between atoms: _541  and  _542
REMARK  221  A    between atoms: _542  and  _543
REMARK  222  A    between atoms: _546  and  _548
REMARK  223  A    between atoms: _548  and  _549
REMARK  224  A    between atoms: _552  and  _554
REMARK  225  A    between atoms: _554  and  _555
REMARK  226  A    between atoms: _554  and  _557
REMARK  227  A    between atoms: _557  and  _558
REMARK  228  A    between atoms: _560  and  _562
REMARK  229  A    between atoms: _562  and  _563
REMARK  230  A    between atoms: _565  and  _567
REMARK  231  A    between atoms: _567  and  _568
REMARK  232  A    between atoms: _567  and  _570
REMARK  233  A    between atoms: _570  and  _571
REMARK  234  A    between atoms: _574  and  _576
REMARK  235  A    between atoms: _576  and  _577
REMARK  236  A    between atoms: _579  and  _581
REMARK  237  A    between atoms: _581  and  _582
REMARK  238  A    between atoms: _581  and  _584
REMARK  239  A    between atoms: _584  and  _585
REMARK  240  A    between atoms: _590  and  _592
REMARK  241  A    between atoms: _592  and  _593
REMARK  242  A    between atoms: _592  and  _595
REMARK  243  A    between atoms: _595  and  _596
REMARK  244  A    between atoms: _596  and  _597
REMARK  245  A    between atoms: _604  and  _605
REMARK  246  A    between atoms: _605  and  _621
REMARK  247  A    between atoms: _606  and  _608
REMARK  248  A    between atoms: _608  and  _609
REMARK  249  A    between atoms: _609  and  _610
REMARK  250  A    between atoms: _614  and  _616
REMARK  251  A    between atoms: _616  and  _617
REMARK  252  A    between atoms: _616  and  _624
REMARK  253  A    between atoms: _617  and  _618
REMARK  254  A    between atoms: _618  and  _619
REMARK  255  A    between atoms: _619  and  _620
REMARK  256  A    between atoms: _620  and  _621
REMARK  257  A    between atoms: _626  and  _628
REMARK  258  A    between atoms: _628  and  _629
REMARK  259  A    between atoms: _628  and  _631
REMARK  260  A    between atoms: _631  and  _632
REMARK  261  A    between atoms: _635  and  _637
REMARK  262  A    between atoms: _637  and  _638
REMARK  263  A    between atoms: _640  and  _642
REMARK  264  A    between atoms: _642  and  _643
REMARK  265  A    between atoms: _646  and  _648
REMARK  266  A    between atoms: _648  and  _649
REMARK  267  A    between atoms: _648  and  _651
REMARK  268  A    between atoms: _651  and  _652
REMARK  269  A    between atoms: _657  and  _658
REMARK                            x       y       z     vdW  Elec       q    Type
REMARK                         _______ _______ _______ _____ _____    ______ ____
ROOT
ATOM      1  O   HOH     1      35.125  12.282  30.700  0.00  0.00    +0.000 OA
ENDROOT
TORSDOF 0
REMARK  Name = ../refined-set-2016/2qrp/2qrp_pocket.pdb
REMARK  269 active torsions:
REMARK  status: ('A' for Active; 'I' for Inactive)
REMARK    1  A    between atoms: _1  and  _3
REMARK    2  A    between atoms: _3  and  _4
REMARK    3  A    between atoms: _3  and  _6
REMARK    4  A    between atoms: _6  and  _7
REMARK    5  A    between atoms: _12  and  _13
REMARK    6  A    between atoms: _15  and  _17
REMARK    7  A    between atoms: _17  and  _18
REMARK    8  A    between atoms: _17  and  _20
REMARK    9  A    between atoms: _20  and  _21
REMARK   10  A    between atoms: _24  and  _26
REMARK   11  A    between atoms: _26  and  _27
REMARK   12  A    between atoms: _26  and  _29
REMARK   13  A    between atoms: _29  and  _30
REMARK   14  A    between atoms: _30  and  _31
REMARK   15  A    between atoms: _34  and  _36
REMARK   16  A    between atoms: _36  and  _37
REMARK   17  A    between atoms: _39  and  _41
REMARK   18  A    between atoms: _41  and  _42
REMARK   19  A    between atoms: _41  and  _44
REMARK   20  A    between atoms: _44  and  _45
REMARK   21  A    between atoms: _50  and  _52
REMARK   22  A    between atoms: _52  and  _53
REMARK   23  A    between atoms: _55  and  _57
REMARK   24  A    between atoms: _57  and  _58
REMARK   25  A    between atoms: _60  and  _62
REMARK   26  A    between atoms: _62  and  _63
REMARK   27  A    between atoms: _62  and  _65
REMARK   28  A    between atoms: _65  and  _66
REMARK   29  A    between atoms: _69  and  _71
REMARK   30  A    between atoms: _71  and  _72
REMARK   31  A    between atoms: _74  and  _76
REMARK   32  A    between atoms: _76  and  _77
REMARK   33  A    between atoms: _76  and  _79
REMARK   34  A    between atoms: _79  and  _80
REMARK   35  A    between atoms: _80  and  _81
REMARK   36  A    between atoms: _81  and  _82
REMARK   37  A    between atoms: _91  and  _93
REMARK   38  A    between atoms: _93  and  _94
REMARK   39  A    between atoms: _93  and  _96
REMARK   40  A    between atoms: _96  and  _97
REMARK   41  A    between atoms: _100  and  _102
REMARK   42  A    between atoms: _102  and  _103
REMARK   43  A    between atoms: _106  and  _108
REMARK   44  A    between atoms: _108  and  _109
REMARK   45  A    between atoms: _108  and  _111
REMARK   46  A    between atoms: _111  and  _112
REMARK   47  A    between atoms: _118  and  _120
REMARK   48  A    between atoms: _120  and  _121
REMARK   49  A    between atoms: _120  and  _123
REMARK   50  A    between atoms: _123  and  _124
REMARK   51  A    between atoms: _127  and  _129
REMARK   52  A    between atoms: _129  and  _130
REMARK   53  A    between atoms: _129  and  _132
REMARK   54  A    between atoms: _132  and  _133
REMARK   55  A    between atoms: _138  and  _139
REMARK   56  A    between atoms: _142  and  _143
REMARK   57  A    between atoms: _148  and  _150
REMARK   58  A    between atoms: _150  and  _151
REMARK   59  A    between atoms: _150  and  _153
REMARK   60  A    between atoms: _153  and  _154
REMARK   61  A    between atoms: _159  and  _161
REMARK   62  A    between atoms: _161  and  _162
REMARK   63  A    between atoms: _161  and  _164
REMARK   64  A    between atoms: _164  and  _165
REMARK   65  A    between atoms: _168  and  _170
REMARK   66  A    between atoms: _170  and  _171
REMARK   67  A    between atoms: _170  and  _173
REMARK   68  A    between atoms: _173  and  _174
REMARK   69  A    between atoms: _179  and  _181
REMARK   70  A    between atoms: _181  and  _182
REMARK   71  A    between atoms: _181  and  _184
REMARK   72  A    between atoms: _184  and  _185
REMARK   73  A    between atoms: _191  and  _193
REMARK   74  A    between atoms: _193  and  _194
REMARK   75  A    between atoms: _193  and  _196
REMARK   76  A    between atoms: _196  and  _197
REMARK   77  A    between atoms: _203  and  _205
REMARK   78  A    between atoms: _205  and  _206
REMARK   79  A    between atoms: _205  and  _208
REMARK   80  A    between atoms: _208  and  _209
REMARK   81  A    between atoms: _209  and  _210
REMARK   82  A    between atoms: _213  and  _215
REMARK   83  A    between atoms: _215  and  _216
REMARK   84  A    between atoms: _215  and  _218
REMARK   85  A    between atoms: _218  and  _219
REMARK   86  A    between atoms: _219  and  _220
REMARK   87  A    between atoms: _220  and  _221
REMARK   88  A    between atoms: _230  and  _232
REMARK   89  A    between atoms: _232  and  _233
REMARK   90  A    between atoms: _232  and  _235
REMARK   91  A    between atoms: _235  and  _236
REMARK   92  A    between atoms: _236  and  _237
REMARK   93  A    between atoms: _240  and  _242
REMARK   94  A    between atoms: _242  and  _243
REMARK   95  A    between atoms: _242  and  _245
REMARK   96  A    between atoms: _245  and  _246
REMARK   97  A    between atoms: _251  and  _253
REMARK   98  A    between atoms: _253  and  _254
REMARK   99  A    between atoms: _253  and  _256
REMARK  100  A    between atoms: _256  and  _257
REMARK  101  A    between atoms: _260  and  _262
REMARK  102  A    between atoms: _262  and  _263
REMARK  103  A    between atoms: _262  and  _265
REMARK  104  A    between atoms: _265  and  _266
REMARK  105  A    between atoms: _269  and  _271
REMARK  106  A    between atoms: _271  and  _272
REMARK  107  A    between atoms: _271  and  _274
REMARK  108  A    between atoms: _274  and  _275
REMARK  109  A    between atoms: _280  and  _282
REMARK  110  A    between atoms: _282  and  _283
REMARK  111  A    between atoms: _282  and  _285
REMARK  112  A    between atoms: _285  and  _286
REMARK  113  A    between atoms: _289  and  _291
REMARK  114  A    between atoms: _291  and  _292
REMARK  115  A    between atoms: _291  and  _294
REMARK  116  A    between atoms: _294  and  _295
REMARK  117  A    between atoms: _300  and  _302
REMARK  118  A    between atoms: _302  and  _303
REMARK  119  A    between atoms: _302  and  _305
REMARK  120  A    between atoms: _305  and  _306
REMARK  121  A    between atoms: _311  and  _313
REMARK  122  A    between atoms: _313  and  _314
REMARK  123  A    between atoms: _313  and  _316
REMARK  124  A    between atoms: _316  and  _317
REMARK  125  A    between atoms: _320  and  _322
REMARK  126  A    between atoms: _322  and  _323
REMARK  127  A    between atoms: _322  and  _325
REMARK  128  A    between atoms: _328  and  _330
REMARK  129  A    between atoms: _330  and  _331
REMARK  130  A    between atoms: _330  and  _333
REMARK  131  A    between atoms: _333  and  _334
REMARK  132  A    between atoms: _337  and  _339
REMARK  133  A    between atoms: _339  and  _340
REMARK  134  A    between atoms: _339  and  _342
REMARK  135  A    between atoms: _342  and  _343
REMARK  136  A    between atoms: _343  and  _344
REMARK  137  A    between atoms: _347  and  _349
REMARK  138  A    between atoms: _349  and  _350
REMARK  139  A    between atoms: _353  and  _355
REMARK  140  A    between atoms: _355  and  _356
REMARK  141  A    between atoms: _355  and  _358
REMARK  142  A    between atoms: _358  and  _359
REMARK  143  A    between atoms: _362  and  _364
REMARK  144  A    between atoms: _364  and  _365
REMARK  145  A    between atoms: _364  and  _367
REMARK  146  A    between atoms: _367  and  _368
REMARK  147  A    between atoms: _368  and  _369
REMARK  148  A    between atoms: _372  and  _374
REMARK  149  A    between atoms: _374  and  _375
REMARK  150  A    between atoms: _374  and  _377
REMARK  151  A    between atoms: _377  and  _378
REMARK  152  A    between atoms: _383  and  _385
REMARK  153  A    between atoms: _385  and  _386
REMARK  154  A    between atoms: _388  and  _390
REMARK  155  A    between atoms: _390  and  _391
REMARK  156  A    between atoms: _390  and  _393
REMARK  157  A    between atoms: _396  and  _398
REMARK  158  A    between atoms: _398  and  _399
REMARK  159  A    between atoms: _402  and  _404
REMARK  160  A    between atoms: _404  and  _405
REMARK  161  A    between atoms: _404  and  _407
REMARK  162  A    between atoms: _407  and  _408
REMARK  163  A    between atoms: _413  and  _415
REMARK  164  A    between atoms: _415  and  _416
REMARK  165  A    between atoms: _415  and  _418
REMARK  166  A    between atoms: _418  and  _419
REMARK  167  A    between atoms: _419  and  _420
REMARK  168  A    between atoms: _420  and  _421
REMARK  169  A    between atoms: _421  and  _422
REMARK  170  A    between atoms: _426  and  _428
REMARK  171  A    between atoms: _428  and  _429
REMARK  172  A    between atoms: _428  and  _431
REMARK  173  A    between atoms: _431  and  _432
REMARK  174  A    between atoms: _435  and  _437
REMARK  175  A    between atoms: _437  and  _438
REMARK  176  A    between atoms: _437  and  _440
REMARK  177  A    between atoms: _440  and  _441
REMARK  178  A    between atoms: _446  and  _448
REMARK  179  A    between atoms: _448  and  _449
REMARK  180  A    between atoms: _451  and  _453
REMARK  181  A    between atoms: _453  and  _454
REMARK  182  A    between atoms: _453  and  _456
REMARK  183  A    between atoms: _456  and  _457
REMARK  184  A    between atoms: _457  and  _458
REMARK  185  A    between atoms: _458  and  _459
REMARK  186  A    between atoms: _459  and  _460
REMARK  187  A    between atoms: _464  and  _466
REMARK  188  A    between atoms: _466  and  _467
REMARK  189  A    between atoms: _466  and  _469
REMARK  190  A    between atoms: _469  and  _470
REMARK  191  A    between atoms: _470  and  _471
REMARK  192  A    between atoms: _471  and  _472
REMARK  193  A    between atoms: _481  and  _483
REMARK  194  A    between atoms: _483  and  _484
REMARK  195  A    between atoms: _483  and  _486
REMARK  196  A    between atoms: _486  and  _487
REMARK  197  A    between atoms: _492  and  _494
REMARK  198  A    between atoms: _494  and  _495
REMARK  199  A    between atoms: _494  and  _497
REMARK  200  A    between atoms: _497  and  _498
REMARK  201  A    between atoms: _503  and  _504
REMARK  202  A    between atoms: _506  and  _508
REMARK  203  A    between atoms: _508  and  _509
REMARK  204  A    between atoms: _508  and  _511
REMARK  205  A    between atoms: _511  and  _512
REMARK  206  A    between atoms: _512  and  _513
REMARK  207  A    between atoms: _513  and  _514
REMARK  208  A    between atoms: _514  and  _515
REMARK  209  A    between atoms: _519  and  _521
REMARK  210  A    between atoms: _521  and  _522
REMARK  211  A    between atoms: _521  and  _524
REMARK  212  A    between atoms: _524  and  _525
REMARK  213  A    between atoms: _527  and  _529
REMARK  214  A    between atoms: _529  and  _530
REMARK  215  A    between atoms: _529  and  _532
REMARK  216  A    between atoms: _532  and  _533
REMARK  217  A    between atoms: _536  and  _538
REMARK  218  A    between atoms: _538  and  _539
REMARK  219  A    between atoms: _538  and  _541
REMARK  220  A    between atoms: _541  and  _542
REMARK  221  A    between atoms: _542  and  _543
REMARK  222  A    between atoms: _546  and  _548
REMARK  223  A    between atoms: _548  and  _549
REMARK  224  A    between atoms: _552  and  _554
REMARK  225  A    between atoms: _554  and  _555
REMARK  226  A    between atoms: _554  and  _557
REMARK  227  A    between atoms: _557  and  _558
REMARK  228  A    between atoms: _560  and  _562
REMARK  229  A    between atoms: _562  and  _563
REMARK  230  A    between atoms: _565  and  _567
REMARK  231  A    between atoms: _567  and  _568
REMARK  232  A    between atoms: _567  and  _570
REMARK  233  A    between atoms: _570  and  _571
REMARK  234  A    between atoms: _574  and  _576
REMARK  235  A    between atoms: _576  and  _577
REMARK  236  A    between atoms: _579  and  _581
REMARK  237  A    between atoms: _581  and  _582
REMARK  238  A    between atoms: _581  and  _584
REMARK  239  A    between atoms: _584  and  _585
REMARK  240  A    between atoms: _590  and  _592
REMARK  241  A    between atoms: _592  and  _593
REMARK  242  A    between atoms: _592  and  _595
REMARK  243  A    between atoms: _595  and  _596
REMARK  244  A    between atoms: _596  and  _597
REMARK  245  A    between atoms: _604  and  _605
REMARK  246  A    between atoms: _605  and  _621
REMARK  247  A    between atoms: _606  and  _608
REMARK  248  A    between atoms: _608  and  _609
REMARK  249  A    between atoms: _609  and  _610
REMARK  250  A    between atoms: _614  and  _616
REMARK  251  A    between atoms: _616  and  _617
REMARK  252  A    between atoms: _616  and  _624
REMARK  253  A    between atoms: _617  and  _618
REMARK  254  A    between atoms: _618  and  _619
REMARK  255  A    between atoms: _619  and  _620
REMARK  256  A    between atoms: _620  and  _621
REMARK  257  A    between atoms: _626  and  _628
REMARK  258  A    between atoms: _628  and  _629
REMARK  259  A    between atoms: _628  and  _631
REMARK  260  A    between atoms: _631  and  _632
REMARK  261  A    between atoms: _635  and  _637
REMARK  262  A    between atoms: _637  and  _638
REMARK  263  A    between atoms: _640  and  _642
REMARK  264  A    between atoms: _642  and  _643
REMARK  265  A    between atoms: _646  and  _648
REMARK  266  A    between atoms: _648  and  _649
REMARK  267  A    between atoms: _648  and  _651
REMARK  268  A    between atoms: _651  and  _652
REMARK  269  A    between atoms: _657  and  _658
REMARK                            x       y       z     vdW  Elec       q    Type
REMARK                         _______ _______ _______ _____ _____    ______ ____
ROOT
ATOM      1  O   HOH     1      36.287  19.183  36.342  0.00  0.00    +0.000 OA
ENDROOT
TORSDOF 0
REMARK  Name = ../refined-set-2016/2qrp/2qrp_pocket.pdb
REMARK  269 active torsions:
REMARK  status: ('A' for Active; 'I' for Inactive)
REMARK    1  A    between atoms: _1  and  _3
REMARK    2  A    between atoms: _3  and  _4
REMARK    3  A    between atoms: _3  and  _6
REMARK    4  A    between atoms: _6  and  _7
REMARK    5  A    between atoms: _12  and  _13
REMARK    6  A    between atoms: _15  and  _17
REMARK    7  A    between atoms: _17  and  _18
REMARK    8  A    between atoms: _17  and  _20
REMARK    9  A    between atoms: _20  and  _21
REMARK   10  A    between atoms: _24  and  _26
REMARK   11  A    between atoms: _26  and  _27
REMARK   12  A    between atoms: _26  and  _29
REMARK   13  A    between atoms: _29  and  _30
REMARK   14  A    between atoms: _30  and  _31
REMARK   15  A    between atoms: _34  and  _36
REMARK   16  A    between atoms: _36  and  _37
REMARK   17  A    between atoms: _39  and  _41
REMARK   18  A    between atoms: _41  and  _42
REMARK   19  A    between atoms: _41  and  _44
REMARK   20  A    between atoms: _44  and  _45
REMARK   21  A    between atoms: _50  and  _52
REMARK   22  A    between atoms: _52  and  _53
REMARK   23  A    between atoms: _55  and  _57
REMARK   24  A    between atoms: _57  and  _58
REMARK   25  A    between atoms: _60  and  _62
REMARK   26  A    between atoms: _62  and  _63
REMARK   27  A    between atoms: _62  and  _65
REMARK   28  A    between atoms: _65  and  _66
REMARK   29  A    between atoms: _69  and  _71
REMARK   30  A    between atoms: _71  and  _72
REMARK   31  A    between atoms: _74  and  _76
REMARK   32  A    between atoms: _76  and  _77
REMARK   33  A    between atoms: _76  and  _79
REMARK   34  A    between atoms: _79  and  _80
REMARK   35  A    between atoms: _80  and  _81
REMARK   36  A    between atoms: _81  and  _82
REMARK   37  A    between atoms: _91  and  _93
REMARK   38  A    between atoms: _93  and  _94
REMARK   39  A    between atoms: _93  and  _96
REMARK   40  A    between atoms: _96  and  _97
REMARK   41  A    between atoms: _100  and  _102
REMARK   42  A    between atoms: _102  and  _103
REMARK   43  A    between atoms: _106  and  _108
REMARK   44  A    between atoms: _108  and  _109
REMARK   45  A    between atoms: _108  and  _111
REMARK   46  A    between atoms: _111  and  _112
REMARK   47  A    between atoms: _118  and  _120
REMARK   48  A    between atoms: _120  and  _121
REMARK   49  A    between atoms: _120  and  _123
REMARK   50  A    between atoms: _123  and  _124
REMARK   51  A    between atoms: _127  and  _129
REMARK   52  A    between atoms: _129  and  _130
REMARK   53  A    between atoms: _129  and  _132
REMARK   54  A    between atoms: _132  and  _133
REMARK   55  A    between atoms: _138  and  _139
REMARK   56  A    between atoms: _142  and  _143
REMARK   57  A    between atoms: _148  and  _150
REMARK   58  A    between atoms: _150  and  _151
REMARK   59  A    between atoms: _150  and  _153
REMARK   60  A    between atoms: _153  and  _154
REMARK   61  A    between atoms: _159  and  _161
REMARK   62  A    between atoms: _161  and  _162
REMARK   63  A    between atoms: _161  and  _164
REMARK   64  A    between atoms: _164  and  _165
REMARK   65  A    between atoms: _168  and  _170
REMARK   66  A    between atoms: _170  and  _171
REMARK   67  A    between atoms: _170  and  _173
REMARK   68  A    between atoms: _173  and  _174
REMARK   69  A    between atoms: _179  and  _181
REMARK   70  A    between atoms: _181  and  _182
REMARK   71  A    between atoms: _181  and  _184
REMARK   72  A    between atoms: _184  and  _185
REMARK   73  A    between atoms: _191  and  _193
REMARK   74  A    between atoms: _193  and  _194
REMARK   75  A    between atoms: _193  and  _196
REMARK   76  A    between atoms: _196  and  _197
REMARK   77  A    between atoms: _203  and  _205
REMARK   78  A    between atoms: _205  and  _206
REMARK   79  A    between atoms: _205  and  _208
REMARK   80  A    between atoms: _208  and  _209
REMARK   81  A    between atoms: _209  and  _210
REMARK   82  A    between atoms: _213  and  _215
REMARK   83  A    between atoms: _215  and  _216
REMARK   84  A    between atoms: _215  and  _218
REMARK   85  A    between atoms: _218  and  _219
REMARK   86  A    between atoms: _219  and  _220
REMARK   87  A    between atoms: _220  and  _221
REMARK   88  A    between atoms: _230  and  _232
REMARK   89  A    between atoms: _232  and  _233
REMARK   90  A    between atoms: _232  and  _235
REMARK   91  A    between atoms: _235  and  _236
REMARK   92  A    between atoms: _236  and  _237
REMARK   93  A    between atoms: _240  and  _242
REMARK   94  A    between atoms: _242  and  _243
REMARK   95  A    between atoms: _242  and  _245
REMARK   96  A    between atoms: _245  and  _246
REMARK   97  A    between atoms: _251  and  _253
REMARK   98  A    between atoms: _253  and  _254
REMARK   99  A    between atoms: _253  and  _256
REMARK  100  A    between atoms: _256  and  _257
REMARK  101  A    between atoms: _260  and  _262
REMARK  102  A    between atoms: _262  and  _263
REMARK  103  A    between atoms: _262  and  _265
REMARK  104  A    between atoms: _265  and  _266
REMARK  105  A    between atoms: _269  and  _271
REMARK  106  A    between atoms: _271  and  _272
REMARK  107  A    between atoms: _271  and  _274
REMARK  108  A    between atoms: _274  and  _275
REMARK  109  A    between atoms: _280  and  _282
REMARK  110  A    between atoms: _282  and  _283
REMARK  111  A    between atoms: _282  and  _285
REMARK  112  A    between atoms: _285  and  _286
REMARK  113  A    between atoms: _289  and  _291
REMARK  114  A    between atoms: _291  and  _292
REMARK  115  A    between atoms: _291  and  _294
REMARK  116  A    between atoms: _294  and  _295
REMARK  117  A    between atoms: _300  and  _302
REMARK  118  A    between atoms: _302  and  _303
REMARK  119  A    between atoms: _302  and  _305
REMARK  120  A    between atoms: _305  and  _306
REMARK  121  A    between atoms: _311  and  _313
REMARK  122  A    between atoms: _313  and  _314
REMARK  123  A    between atoms: _313  and  _316
REMARK  124  A    between atoms: _316  and  _317
REMARK  125  A    between atoms: _320  and  _322
REMARK  126  A    between atoms: _322  and  _323
REMARK  127  A    between atoms: _322  and  _325
REMARK  128  A    between atoms: _328  and  _330
REMARK  129  A    between atoms: _330  and  _331
REMARK  130  A    between atoms: _330  and  _333
REMARK  131  A    between atoms: _333  and  _334
REMARK  132  A    between atoms: _337  and  _339
REMARK  133  A    between atoms: _339  and  _340
REMARK  134  A    between atoms: _339  and  _342
REMARK  135  A    between atoms: _342  and  _343
REMARK  136  A    between atoms: _343  and  _344
REMARK  137  A    between atoms: _347  and  _349
REMARK  138  A    between atoms: _349  and  _350
REMARK  139  A    between atoms: _353  and  _355
REMARK  140  A    between atoms: _355  and  _356
REMARK  141  A    between atoms: _355  and  _358
REMARK  142  A    between atoms: _358  and  _359
REMARK  143  A    between atoms: _362  and  _364
REMARK  144  A    between atoms: _364  and  _365
REMARK  145  A    between atoms: _364  and  _367
REMARK  146  A    between atoms: _367  and  _368
REMARK  147  A    between atoms: _368  and  _369
REMARK  148  A    between atoms: _372  and  _374
REMARK  149  A    between atoms: _374  and  _375
REMARK  150  A    between atoms: _374  and  _377
REMARK  151  A    between atoms: _377  and  _378
REMARK  152  A    between atoms: _383  and  _385
REMARK  153  A    between atoms: _385  and  _386
REMARK  154  A    between atoms: _388  and  _390
REMARK  155  A    between atoms: _390  and  _391
REMARK  156  A    between atoms: _390  and  _393
REMARK  157  A    between atoms: _396  and  _398
REMARK  158  A    between atoms: _398  and  _399
REMARK  159  A    between atoms: _402  and  _404
REMARK  160  A    between atoms: _404  and  _405
REMARK  161  A    between atoms: _404  and  _407
REMARK  162  A    between atoms: _407  and  _408
REMARK  163  A    between atoms: _413  and  _415
REMARK  164  A    between atoms: _415  and  _416
REMARK  165  A    between atoms: _415  and  _418
REMARK  166  A    between atoms: _418  and  _419
REMARK  167  A    between atoms: _419  and  _420
REMARK  168  A    between atoms: _420  and  _421
REMARK  169  A    between atoms: _421  and  _422
REMARK  170  A    between atoms: _426  and  _428
REMARK  171  A    between atoms: _428  and  _429
REMARK  172  A    between atoms: _428  and  _431
REMARK  173  A    between atoms: _431  and  _432
REMARK  174  A    between atoms: _435  and  _437
REMARK  175  A    between atoms: _437  and  _438
REMARK  176  A    between atoms: _437  and  _440
REMARK  177  A    between atoms: _440  and  _441
REMARK  178  A    between atoms: _446  and  _448
REMARK  179  A    between atoms: _448  and  _449
REMARK  180  A    between atoms: _451  and  _453
REMARK  181  A    between atoms: _453  and  _454
REMARK  182  A    between atoms: _453  and  _456
REMARK  183  A    between atoms: _456  and  _457
REMARK  184  A    between atoms: _457  and  _458
REMARK  185  A    between atoms: _458  and  _459
REMARK  186  A    between atoms: _459  and  _460
REMARK  187  A    between atoms: _464  and  _466
REMARK  188  A    between atoms: _466  and  _467
REMARK  189  A    between atoms: _466  and  _469
REMARK  190  A    between atoms: _469  and  _470
REMARK  191  A    between atoms: _470  and  _471
REMARK  192  A    between atoms: _471  and  _472
REMARK  193  A    between atoms: _481  and  _483
REMARK  194  A    between atoms: _483  and  _484
REMARK  195  A    between atoms: _483  and  _486
REMARK  196  A    between atoms: _486  and  _487
REMARK  197  A    between atoms: _492  and  _494
REMARK  198  A    between atoms: _494  and  _495
REMARK  199  A    between atoms: _494  and  _497
REMARK  200  A    between atoms: _497  and  _498
REMARK  201  A    between atoms: _503  and  _504
REMARK  202  A    between atoms: _506  and  _508
REMARK  203  A    between atoms: _508  and  _509
REMARK  204  A    between atoms: _508  and  _511
REMARK  205  A    between atoms: _511  and  _512
REMARK  206  A    between atoms: _512  and  _513
REMARK  207  A    between atoms: _513  and  _514
REMARK  208  A    between atoms: _514  and  _515
REMARK  209  A    between atoms: _519  and  _521
REMARK  210  A    between atoms: _521  and  _522
REMARK  211  A    between atoms: _521  and  _524
REMARK  212  A    between atoms: _524  and  _525
REMARK  213  A    between atoms: _527  and  _529
REMARK  214  A    between atoms: _529  and  _530
REMARK  215  A    between atoms: _529  and  _532
REMARK  216  A    between atoms: _532  and  _533
REMARK  217  A    between atoms: _536  and  _538
REMARK  218  A    between atoms: _538  and  _539
REMARK  219  A    between atoms: _538  and  _541
REMARK  220  A    between atoms: _541  and  _542
REMARK  221  A    between atoms: _542  and  _543
REMARK  222  A    between atoms: _546  and  _548
REMARK  223  A    between atoms: _548  and  _549
REMARK  224  A    between atoms: _552  and  _554
REMARK  225  A    between atoms: _554  and  _555
REMARK  226  A    between atoms: _554  and  _557
REMARK  227  A    between atoms: _557  and  _558
REMARK  228  A    between atoms: _560  and  _562
REMARK  229  A    between atoms: _562  and  _563
REMARK  230  A    between atoms: _565  and  _567
REMARK  231  A    between atoms: _567  and  _568
REMARK  232  A    between atoms: _567  and  _570
REMARK  233  A    between atoms: _570  and  _571
REMARK  234  A    between atoms: _574  and  _576
REMARK  235  A    between atoms: _576  and  _577
REMARK  236  A    between atoms: _579  and  _581
REMARK  237  A    between atoms: _581  and  _582
REMARK  238  A    between atoms: _581  and  _584
REMARK  239  A    between atoms: _584  and  _585
REMARK  240  A    between atoms: _590  and  _592
REMARK  241  A    between atoms: _592  and  _593
REMARK  242  A    between atoms: _592  and  _595
REMARK  243  A    between atoms: _595  and  _596
REMARK  244  A    between atoms: _596  and  _597
REMARK  245  A    between atoms: _604  and  _605
REMARK  246  A    between atoms: _605  and  _621
REMARK  247  A    between atoms: _606  and  _608
REMARK  248  A    between atoms: _608  and  _609
REMARK  249  A    between atoms: _609  and  _610
REMARK  250  A    between atoms: _614  and  _616
REMARK  251  A    between atoms: _616  and  _617
REMARK  252  A    between atoms: _616  and  _624
REMARK  253  A    between atoms: _617  and  _618
REMARK  254  A    between atoms: _618  and  _619
REMARK  255  A    between atoms: _619  and  _620
REMARK  256  A    between atoms: _620  and  _621
REMARK  257  A    between atoms: _626  and  _628
REMARK  258  A    between atoms: _628  and  _629
REMARK  259  A    between atoms: _628  and  _631
REMARK  260  A    between atoms: _631  and  _632
REMARK  261  A    between atoms: _635  and  _637
REMARK  262  A    between atoms: _637  and  _638
REMARK  263  A    between atoms: _640  and  _642
REMARK  264  A    between atoms: _642  and  _643
REMARK  265  A    between atoms: _646  and  _648
REMARK  266  A    between atoms: _648  and  _649
REMARK  267  A    between atoms: _648  and  _651
REMARK  268  A    between atoms: _651  and  _652
REMARK  269  A    between atoms: _657  and  _658
REMARK                            x       y       z     vdW  Elec       q    Type
REMARK                         _______ _______ _______ _____ _____    ______ ____
ROOT
ATOM      1  O   HOH     1      27.738  27.262  27.219  0.00  0.00    +0.000 OA
ENDROOT
TORSDOF 0
REMARK  Name = ../refined-set-2016/2qrp/2qrp_pocket.pdb
REMARK  269 active torsions:
REMARK  status: ('A' for Active; 'I' for Inactive)
REMARK    1  A    between atoms: _1  and  _3
REMARK    2  A    between atoms: _3  and  _4
REMARK    3  A    between atoms: _3  and  _6
REMARK    4  A    between atoms: _6  and  _7
REMARK    5  A    between atoms: _12  and  _13
REMARK    6  A    between atoms: _15  and  _17
REMARK    7  A    between atoms: _17  and  _18
REMARK    8  A    between atoms: _17  and  _20
REMARK    9  A    between atoms: _20  and  _21
REMARK   10  A    between atoms: _24  and  _26
REMARK   11  A    between atoms: _26  and  _27
REMARK   12  A    between atoms: _26  and  _29
REMARK   13  A    between atoms: _29  and  _30
REMARK   14  A    between atoms: _30  and  _31
REMARK   15  A    between atoms: _34  and  _36
REMARK   16  A    between atoms: _36  and  _37
REMARK   17  A    between atoms: _39  and  _41
REMARK   18  A    between atoms: _41  and  _42
REMARK   19  A    between atoms: _41  and  _44
REMARK   20  A    between atoms: _44  and  _45
REMARK   21  A    between atoms: _50  and  _52
REMARK   22  A    between atoms: _52  and  _53
REMARK   23  A    between atoms: _55  and  _57
REMARK   24  A    between atoms: _57  and  _58
REMARK   25  A    between atoms: _60  and  _62
REMARK   26  A    between atoms: _62  and  _63
REMARK   27  A    between atoms: _62  and  _65
REMARK   28  A    between atoms: _65  and  _66
REMARK   29  A    between atoms: _69  and  _71
REMARK   30  A    between atoms: _71  and  _72
REMARK   31  A    between atoms: _74  and  _76
REMARK   32  A    between atoms: _76  and  _77
REMARK   33  A    between atoms: _76  and  _79
REMARK   34  A    between atoms: _79  and  _80
REMARK   35  A    between atoms: _80  and  _81
REMARK   36  A    between atoms: _81  and  _82
REMARK   37  A    between atoms: _91  and  _93
REMARK   38  A    between atoms: _93  and  _94
REMARK   39  A    between atoms: _93  and  _96
REMARK   40  A    between atoms: _96  and  _97
REMARK   41  A    between atoms: _100  and  _102
REMARK   42  A    between atoms: _102  and  _103
REMARK   43  A    between atoms: _106  and  _108
REMARK   44  A    between atoms: _108  and  _109
REMARK   45  A    between atoms: _108  and  _111
REMARK   46  A    between atoms: _111  and  _112
REMARK   47  A    between atoms: _118  and  _120
REMARK   48  A    between atoms: _120  and  _121
REMARK   49  A    between atoms: _120  and  _123
REMARK   50  A    between atoms: _123  and  _124
REMARK   51  A    between atoms: _127  and  _129
REMARK   52  A    between atoms: _129  and  _130
REMARK   53  A    between atoms: _129  and  _132
REMARK   54  A    between atoms: _132  and  _133
REMARK   55  A    between atoms: _138  and  _139
REMARK   56  A    between atoms: _142  and  _143
REMARK   57  A    between atoms: _148  and  _150
REMARK   58  A    between atoms: _150  and  _151
REMARK   59  A    between atoms: _150  and  _153
REMARK   60  A    between atoms: _153  and  _154
REMARK   61  A    between atoms: _159  and  _161
REMARK   62  A    between atoms: _161  and  _162
REMARK   63  A    between atoms: _161  and  _164
REMARK   64  A    between atoms: _164  and  _165
REMARK   65  A    between atoms: _168  and  _170
REMARK   66  A    between atoms: _170  and  _171
REMARK   67  A    between atoms: _170  and  _173
REMARK   68  A    between atoms: _173  and  _174
REMARK   69  A    between atoms: _179  and  _181
REMARK   70  A    between atoms: _181  and  _182
REMARK   71  A    between atoms: _181  and  _184
REMARK   72  A    between atoms: _184  and  _185
REMARK   73  A    between atoms: _191  and  _193
REMARK   74  A    between atoms: _193  and  _194
REMARK   75  A    between atoms: _193  and  _196
REMARK   76  A    between atoms: _196  and  _197
REMARK   77  A    between atoms: _203  and  _205
REMARK   78  A    between atoms: _205  and  _206
REMARK   79  A    between atoms: _205  and  _208
REMARK   80  A    between atoms: _208  and  _209
REMARK   81  A    between atoms: _209  and  _210
REMARK   82  A    between atoms: _213  and  _215
REMARK   83  A    between atoms: _215  and  _216
REMARK   84  A    between atoms: _215  and  _218
REMARK   85  A    between atoms: _218  and  _219
REMARK   86  A    between atoms: _219  and  _220
REMARK   87  A    between atoms: _220  and  _221
REMARK   88  A    between atoms: _230  and  _232
REMARK   89  A    between atoms: _232  and  _233
REMARK   90  A    between atoms: _232  and  _235
REMARK   91  A    between atoms: _235  and  _236
REMARK   92  A    between atoms: _236  and  _237
REMARK   93  A    between atoms: _240  and  _242
REMARK   94  A    between atoms: _242  and  _243
REMARK   95  A    between atoms: _242  and  _245
REMARK   96  A    between atoms: _245  and  _246
REMARK   97  A    between atoms: _251  and  _253
REMARK   98  A    between atoms: _253  and  _254
REMARK   99  A    between atoms: _253  and  _256
REMARK  100  A    between atoms: _256  and  _257
REMARK  101  A    between atoms: _260  and  _262
REMARK  102  A    between atoms: _262  and  _263
REMARK  103  A    between atoms: _262  and  _265
REMARK  104  A    between atoms: _265  and  _266
REMARK  105  A    between atoms: _269  and  _271
REMARK  106  A    between atoms: _271  and  _272
REMARK  107  A    between atoms: _271  and  _274
REMARK  108  A    between atoms: _274  and  _275
REMARK  109  A    between atoms: _280  and  _282
REMARK  110  A    between atoms: _282  and  _283
REMARK  111  A    between atoms: _282  and  _285
REMARK  112  A    between atoms: _285  and  _286
REMARK  113  A    between atoms: _289  and  _291
REMARK  114  A    between atoms: _291  and  _292
REMARK  115  A    between atoms: _291  and  _294
REMARK  116  A    between atoms: _294  and  _295
REMARK  117  A    between atoms: _300  and  _302
REMARK  118  A    between atoms: _302  and  _303
REMARK  119  A    between atoms: _302  and  _305
REMARK  120  A    between atoms: _305  and  _306
REMARK  121  A    between atoms: _311  and  _313
REMARK  122  A    between atoms: _313  and  _314
REMARK  123  A    between atoms: _313  and  _316
REMARK  124  A    between atoms: _316  and  _317
REMARK  125  A    between atoms: _320  and  _322
REMARK  126  A    between atoms: _322  and  _323
REMARK  127  A    between atoms: _322  and  _325
REMARK  128  A    between atoms: _328  and  _330
REMARK  129  A    between atoms: _330  and  _331
REMARK  130  A    between atoms: _330  and  _333
REMARK  131  A    between atoms: _333  and  _334
REMARK  132  A    between atoms: _337  and  _339
REMARK  133  A    between atoms: _339  and  _340
REMARK  134  A    between atoms: _339  and  _342
REMARK  135  A    between atoms: _342  and  _343
REMARK  136  A    between atoms: _343  and  _344
REMARK  137  A    between atoms: _347  and  _349
REMARK  138  A    between atoms: _349  and  _350
REMARK  139  A    between atoms: _353  and  _355
REMARK  140  A    between atoms: _355  and  _356
REMARK  141  A    between atoms: _355  and  _358
REMARK  142  A    between atoms: _358  and  _359
REMARK  143  A    between atoms: _362  and  _364
REMARK  144  A    between atoms: _364  and  _365
REMARK  145  A    between atoms: _364  and  _367
REMARK  146  A    between atoms: _367  and  _368
REMARK  147  A    between atoms: _368  and  _369
REMARK  148  A    between atoms: _372  and  _374
REMARK  149  A    between atoms: _374  and  _375
REMARK  150  A    between atoms: _374  and  _377
REMARK  151  A    between atoms: _377  and  _378
REMARK  152  A    between atoms: _383  and  _385
REMARK  153  A    between atoms: _385  and  _386
REMARK  154  A    between atoms: _388  and  _390
REMARK  155  A    between atoms: _390  and  _391
REMARK  156  A    between atoms: _390  and  _393
REMARK  157  A    between atoms: _396  and  _398
REMARK  158  A    between atoms: _398  and  _399
REMARK  159  A    between atoms: _402  and  _404
REMARK  160  A    between atoms: _404  and  _405
REMARK  161  A    between atoms: _404  and  _407
REMARK  162  A    between atoms: _407  and  _408
REMARK  163  A    between atoms: _413  and  _415
REMARK  164  A    between atoms: _415  and  _416
REMARK  165  A    between atoms: _415  and  _418
REMARK  166  A    between atoms: _418  and  _419
REMARK  167  A    between atoms: _419  and  _420
REMARK  168  A    between atoms: _420  and  _421
REMARK  169  A    between atoms: _421  and  _422
REMARK  170  A    between atoms: _426  and  _428
REMARK  171  A    between atoms: _428  and  _429
REMARK  172  A    between atoms: _428  and  _431
REMARK  173  A    between atoms: _431  and  _432
REMARK  174  A    between atoms: _435  and  _437
REMARK  175  A    between atoms: _437  and  _438
REMARK  176  A    between atoms: _437  and  _440
REMARK  177  A    between atoms: _440  and  _441
REMARK  178  A    between atoms: _446  and  _448
REMARK  179  A    between atoms: _448  and  _449
REMARK  180  A    between atoms: _451  and  _453
REMARK  181  A    between atoms: _453  and  _454
REMARK  182  A    between atoms: _453  and  _456
REMARK  183  A    between atoms: _456  and  _457
REMARK  184  A    between atoms: _457  and  _458
REMARK  185  A    between atoms: _458  and  _459
REMARK  186  A    between atoms: _459  and  _460
REMARK  187  A    between atoms: _464  and  _466
REMARK  188  A    between atoms: _466  and  _467
REMARK  189  A    between atoms: _466  and  _469
REMARK  190  A    between atoms: _469  and  _470
REMARK  191  A    between atoms: _470  and  _471
REMARK  192  A    between atoms: _471  and  _472
REMARK  193  A    between atoms: _481  and  _483
REMARK  194  A    between atoms: _483  and  _484
REMARK  195  A    between atoms: _483  and  _486
REMARK  196  A    between atoms: _486  and  _487
REMARK  197  A    between atoms: _492  and  _494
REMARK  198  A    between atoms: _494  and  _495
REMARK  199  A    between atoms: _494  and  _497
REMARK  200  A    between atoms: _497  and  _498
REMARK  201  A    between atoms: _503  and  _504
REMARK  202  A    between atoms: _506  and  _508
REMARK  203  A    between atoms: _508  and  _509
REMARK  204  A    between atoms: _508  and  _511
REMARK  205  A    between atoms: _511  and  _512
REMARK  206  A    between atoms: _512  and  _513
REMARK  207  A    between atoms: _513  and  _514
REMARK  208  A    between atoms: _514  and  _515
REMARK  209  A    between atoms: _519  and  _521
REMARK  210  A    between atoms: _521  and  _522
REMARK  211  A    between atoms: _521  and  _524
REMARK  212  A    between atoms: _524  and  _525
REMARK  213  A    between atoms: _527  and  _529
REMARK  214  A    between atoms: _529  and  _530
REMARK  215  A    between atoms: _529  and  _532
REMARK  216  A    between atoms: _532  and  _533
REMARK  217  A    between atoms: _536  and  _538
REMARK  218  A    between atoms: _538  and  _539
REMARK  219  A    between atoms: _538  and  _541
REMARK  220  A    between atoms: _541  and  _542
REMARK  221  A    between atoms: _542  and  _543
REMARK  222  A    between atoms: _546  and  _548
REMARK  223  A    between atoms: _548  and  _549
REMARK  224  A    between atoms: _552  and  _554
REMARK  225  A    between atoms: _554  and  _555
REMARK  226  A    between atoms: _554  and  _557
REMARK  227  A    between atoms: _557  and  _558
REMARK  228  A    between atoms: _560  and  _562
REMARK  229  A    between atoms: _562  and  _563
REMARK  230  A    between atoms: _565  and  _567
REMARK  231  A    between atoms: _567  and  _568
REMARK  232  A    between atoms: _567  and  _570
REMARK  233  A    between atoms: _570  and  _571
REMARK  234  A    between atoms: _574  and  _576
REMARK  235  A    between atoms: _576  and  _577
REMARK  236  A    between atoms: _579  and  _581
REMARK  237  A    between atoms: _581  and  _582
REMARK  238  A    between atoms: _581  and  _584
REMARK  239  A    between atoms: _584  and  _585
REMARK  240  A    between atoms: _590  and  _592
REMARK  241  A    between atoms: _592  and  _593
REMARK  242  A    between atoms: _592  and  _595
REMARK  243  A    between atoms: _595  and  _596
REMARK  244  A    between atoms: _596  and  _597
REMARK  245  A    between atoms: _604  and  _605
REMARK  246  A    between atoms: _605  and  _621
REMARK  247  A    between atoms: _606  and  _608
REMARK  248  A    between atoms: _608  and  _609
REMARK  249  A    between atoms: _609  and  _610
REMARK  250  A    between atoms: _614  and  _616
REMARK  251  A    between atoms: _616  and  _617
REMARK  252  A    between atoms: _616  and  _624
REMARK  253  A    between atoms: _617  and  _618
REMARK  254  A    between atoms: _618  and  _619
REMARK  255  A    between atoms: _619  and  _620
REMARK  256  A    between atoms: _620  and  _621
REMARK  257  A    between atoms: _626  and  _628
REMARK  258  A    between atoms: _628  and  _629
REMARK  259  A    between atoms: _628  and  _631
REMARK  260  A    between atoms: _631  and  _632
REMARK  261  A    between atoms: _635  and  _637
REMARK  262  A    between atoms: _637  and  _638
REMARK  263  A    between atoms: _640  and  _642
REMARK  264  A    between atoms: _642  and  _643
REMARK  265  A    between atoms: _646  and  _648
REMARK  266  A    between atoms: _648  and  _649
REMARK  267  A    between atoms: _648  and  _651
REMARK  268  A    between atoms: _651  and  _652
REMARK  269  A    between atoms: _657  and  _658
REMARK                            x       y       z     vdW  Elec       q    Type
REMARK                         _______ _______ _______ _____ _____    ______ ____
ROOT
ATOM      1  O   HOH     1      26.613  23.390  21.266  0.00  0.00    +0.000 OA
ENDROOT
TORSDOF 0
REMARK  Name = ../refined-set-2016/2qrp/2qrp_pocket.pdb
REMARK  269 active torsions:
REMARK  status: ('A' for Active; 'I' for Inactive)
REMARK    1  A    between atoms: _1  and  _3
REMARK    2  A    between atoms: _3  and  _4
REMARK    3  A    between atoms: _3  and  _6
REMARK    4  A    between atoms: _6  and  _7
REMARK    5  A    between atoms: _12  and  _13
REMARK    6  A    between atoms: _15  and  _17
REMARK    7  A    between atoms: _17  and  _18
REMARK    8  A    between atoms: _17  and  _20
REMARK    9  A    between atoms: _20  and  _21
REMARK   10  A    between atoms: _24  and  _26
REMARK   11  A    between atoms: _26  and  _27
REMARK   12  A    between atoms: _26  and  _29
REMARK   13  A    between atoms: _29  and  _30
REMARK   14  A    between atoms: _30  and  _31
REMARK   15  A    between atoms: _34  and  _36
REMARK   16  A    between atoms: _36  and  _37
REMARK   17  A    between atoms: _39  and  _41
REMARK   18  A    between atoms: _41  and  _42
REMARK   19  A    between atoms: _41  and  _44
REMARK   20  A    between atoms: _44  and  _45
REMARK   21  A    between atoms: _50  and  _52
REMARK   22  A    between atoms: _52  and  _53
REMARK   23  A    between atoms: _55  and  _57
REMARK   24  A    between atoms: _57  and  _58
REMARK   25  A    between atoms: _60  and  _62
REMARK   26  A    between atoms: _62  and  _63
REMARK   27  A    between atoms: _62  and  _65
REMARK   28  A    between atoms: _65  and  _66
REMARK   29  A    between atoms: _69  and  _71
REMARK   30  A    between atoms: _71  and  _72
REMARK   31  A    between atoms: _74  and  _76
REMARK   32  A    between atoms: _76  and  _77
REMARK   33  A    between atoms: _76  and  _79
REMARK   34  A    between atoms: _79  and  _80
REMARK   35  A    between atoms: _80  and  _81
REMARK   36  A    between atoms: _81  and  _82
REMARK   37  A    between atoms: _91  and  _93
REMARK   38  A    between atoms: _93  and  _94
REMARK   39  A    between atoms: _93  and  _96
REMARK   40  A    between atoms: _96  and  _97
REMARK   41  A    between atoms: _100  and  _102
REMARK   42  A    between atoms: _102  and  _103
REMARK   43  A    between atoms: _106  and  _108
REMARK   44  A    between atoms: _108  and  _109
REMARK   45  A    between atoms: _108  and  _111
REMARK   46  A    between atoms: _111  and  _112
REMARK   47  A    between atoms: _118  and  _120
REMARK   48  A    between atoms: _120  and  _121
REMARK   49  A    between atoms: _120  and  _123
REMARK   50  A    between atoms: _123  and  _124
REMARK   51  A    between atoms: _127  and  _129
REMARK   52  A    between atoms: _129  and  _130
REMARK   53  A    between atoms: _129  and  _132
REMARK   54  A    between atoms: _132  and  _133
REMARK   55  A    between atoms: _138  and  _139
REMARK   56  A    between atoms: _142  and  _143
REMARK   57  A    between atoms: _148  and  _150
REMARK   58  A    between atoms: _150  and  _151
REMARK   59  A    between atoms: _150  and  _153
REMARK   60  A    between atoms: _153  and  _154
REMARK   61  A    between atoms: _159  and  _161
REMARK   62  A    between atoms: _161  and  _162
REMARK   63  A    between atoms: _161  and  _164
REMARK   64  A    between atoms: _164  and  _165
REMARK   65  A    between atoms: _168  and  _170
REMARK   66  A    between atoms: _170  and  _171
REMARK   67  A    between atoms: _170  and  _173
REMARK   68  A    between atoms: _173  and  _174
REMARK   69  A    between atoms: _179  and  _181
REMARK   70  A    between atoms: _181  and  _182
REMARK   71  A    between atoms: _181  and  _184
REMARK   72  A    between atoms: _184  and  _185
REMARK   73  A    between atoms: _191  and  _193
REMARK   74  A    between atoms: _193  and  _194
REMARK   75  A    between atoms: _193  and  _196
REMARK   76  A    between atoms: _196  and  _197
REMARK   77  A    between atoms: _203  and  _205
REMARK   78  A    between atoms: _205  and  _206
REMARK   79  A    between atoms: _205  and  _208
REMARK   80  A    between atoms: _208  and  _209
REMARK   81  A    between atoms: _209  and  _210
REMARK   82  A    between atoms: _213  and  _215
REMARK   83  A    between atoms: _215  and  _216
REMARK   84  A    between atoms: _215  and  _218
REMARK   85  A    between atoms: _218  and  _219
REMARK   86  A    between atoms: _219  and  _220
REMARK   87  A    between atoms: _220  and  _221
REMARK   88  A    between atoms: _230  and  _232
REMARK   89  A    between atoms: _232  and  _233
REMARK   90  A    between atoms: _232  and  _235
REMARK   91  A    between atoms: _235  and  _236
REMARK   92  A    between atoms: _236  and  _237
REMARK   93  A    between atoms: _240  and  _242
REMARK   94  A    between atoms: _242  and  _243
REMARK   95  A    between atoms: _242  and  _245
REMARK   96  A    between atoms: _245  and  _246
REMARK   97  A    between atoms: _251  and  _253
REMARK   98  A    between atoms: _253  and  _254
REMARK   99  A    between atoms: _253  and  _256
REMARK  100  A    between atoms: _256  and  _257
REMARK  101  A    between atoms: _260  and  _262
REMARK  102  A    between atoms: _262  and  _263
REMARK  103  A    between atoms: _262  and  _265
REMARK  104  A    between atoms: _265  and  _266
REMARK  105  A    between atoms: _269  and  _271
REMARK  106  A    between atoms: _271  and  _272
REMARK  107  A    between atoms: _271  and  _274
REMARK  108  A    between atoms: _274  and  _275
REMARK  109  A    between atoms: _280  and  _282
REMARK  110  A    between atoms: _282  and  _283
REMARK  111  A    between atoms: _282  and  _285
REMARK  112  A    between atoms: _285  and  _286
REMARK  113  A    between atoms: _289  and  _291
REMARK  114  A    between atoms: _291  and  _292
REMARK  115  A    between atoms: _291  and  _294
REMARK  116  A    between atoms: _294  and  _295
REMARK  117  A    between atoms: _300  and  _302
REMARK  118  A    between atoms: _302  and  _303
REMARK  119  A    between atoms: _302  and  _305
REMARK  120  A    between atoms: _305  and  _306
REMARK  121  A    between atoms: _311  and  _313
REMARK  122  A    between atoms: _313  and  _314
REMARK  123  A    between atoms: _313  and  _316
REMARK  124  A    between atoms: _316  and  _317
REMARK  125  A    between atoms: _320  and  _322
REMARK  126  A    between atoms: _322  and  _323
REMARK  127  A    between atoms: _322  and  _325
REMARK  128  A    between atoms: _328  and  _330
REMARK  129  A    between atoms: _330  and  _331
REMARK  130  A    between atoms: _330  and  _333
REMARK  131  A    between atoms: _333  and  _334
REMARK  132  A    between atoms: _337  and  _339
REMARK  133  A    between atoms: _339  and  _340
REMARK  134  A    between atoms: _339  and  _342
REMARK  135  A    between atoms: _342  and  _343
REMARK  136  A    between atoms: _343  and  _344
REMARK  137  A    between atoms: _347  and  _349
REMARK  138  A    between atoms: _349  and  _350
REMARK  139  A    between atoms: _353  and  _355
REMARK  140  A    between atoms: _355  and  _356
REMARK  141  A    between atoms: _355  and  _358
REMARK  142  A    between atoms: _358  and  _359
REMARK  143  A    between atoms: _362  and  _364
REMARK  144  A    between atoms: _364  and  _365
REMARK  145  A    between atoms: _364  and  _367
REMARK  146  A    between atoms: _367  and  _368
REMARK  147  A    between atoms: _368  and  _369
REMARK  148  A    between atoms: _372  and  _374
REMARK  149  A    between atoms: _374  and  _375
REMARK  150  A    between atoms: _374  and  _377
REMARK  151  A    between atoms: _377  and  _378
REMARK  152  A    between atoms: _383  and  _385
REMARK  153  A    between atoms: _385  and  _386
REMARK  154  A    between atoms: _388  and  _390
REMARK  155  A    between atoms: _390  and  _391
REMARK  156  A    between atoms: _390  and  _393
REMARK  157  A    between atoms: _396  and  _398
REMARK  158  A    between atoms: _398  and  _399
REMARK  159  A    between atoms: _402  and  _404
REMARK  160  A    between atoms: _404  and  _405
REMARK  161  A    between atoms: _404  and  _407
REMARK  162  A    between atoms: _407  and  _408
REMARK  163  A    between atoms: _413  and  _415
REMARK  164  A    between atoms: _415  and  _416
REMARK  165  A    between atoms: _415  and  _418
REMARK  166  A    between atoms: _418  and  _419
REMARK  167  A    between atoms: _419  and  _420
REMARK  168  A    between atoms: _420  and  _421
REMARK  169  A    between atoms: _421  and  _422
REMARK  170  A    between atoms: _426  and  _428
REMARK  171  A    between atoms: _428  and  _429
REMARK  172  A    between atoms: _428  and  _431
REMARK  173  A    between atoms: _431  and  _432
REMARK  174  A    between atoms: _435  and  _437
REMARK  175  A    between atoms: _437  and  _438
REMARK  176  A    between atoms: _437  and  _440
REMARK  177  A    between atoms: _440  and  _441
REMARK  178  A    between atoms: _446  and  _448
REMARK  179  A    between atoms: _448  and  _449
REMARK  180  A    between atoms: _451  and  _453
REMARK  181  A    between atoms: _453  and  _454
REMARK  182  A    between atoms: _453  and  _456
REMARK  183  A    between atoms: _456  and  _457
REMARK  184  A    between atoms: _457  and  _458
REMARK  185  A    between atoms: _458  and  _459
REMARK  186  A    between atoms: _459  and  _460
REMARK  187  A    between atoms: _464  and  _466
REMARK  188  A    between atoms: _466  and  _467
REMARK  189  A    between atoms: _466  and  _469
REMARK  190  A    between atoms: _469  and  _470
REMARK  191  A    between atoms: _470  and  _471
REMARK  192  A    between atoms: _471  and  _472
REMARK  193  A    between atoms: _481  and  _483
REMARK  194  A    between atoms: _483  and  _484
REMARK  195  A    between atoms: _483  and  _486
REMARK  196  A    between atoms: _486  and  _487
REMARK  197  A    between atoms: _492  and  _494
REMARK  198  A    between atoms: _494  and  _495
REMARK  199  A    between atoms: _494  and  _497
REMARK  200  A    between atoms: _497  and  _498
REMARK  201  A    between atoms: _503  and  _504
REMARK  202  A    between atoms: _506  and  _508
REMARK  203  A    between atoms: _508  and  _509
REMARK  204  A    between atoms: _508  and  _511
REMARK  205  A    between atoms: _511  and  _512
REMARK  206  A    between atoms: _512  and  _513
REMARK  207  A    between atoms: _513  and  _514
REMARK  208  A    between atoms: _514  and  _515
REMARK  209  A    between atoms: _519  and  _521
REMARK  210  A    between atoms: _521  and  _522
REMARK  211  A    between atoms: _521  and  _524
REMARK  212  A    between atoms: _524  and  _525
REMARK  213  A    between atoms: _527  and  _529
REMARK  214  A    between atoms: _529  and  _530
REMARK  215  A    between atoms: _529  and  _532
REMARK  216  A    between atoms: _532  and  _533
REMARK  217  A    between atoms: _536  and  _538
REMARK  218  A    between atoms: _538  and  _539
REMARK  219  A    between atoms: _538  and  _541
REMARK  220  A    between atoms: _541  and  _542
REMARK  221  A    between atoms: _542  and  _543
REMARK  222  A    between atoms: _546  and  _548
REMARK  223  A    between atoms: _548  and  _549
REMARK  224  A    between atoms: _552  and  _554
REMARK  225  A    between atoms: _554  and  _555
REMARK  226  A    between atoms: _554  and  _557
REMARK  227  A    between atoms: _557  and  _558
REMARK  228  A    between atoms: _560  and  _562
REMARK  229  A    between atoms: _562  and  _563
REMARK  230  A    between atoms: _565  and  _567
REMARK  231  A    between atoms: _567  and  _568
REMARK  232  A    between atoms: _567  and  _570
REMARK  233  A    between atoms: _570  and  _571
REMARK  234  A    between atoms: _574  and  _576
REMARK  235  A    between atoms: _576  and  _577
REMARK  236  A    between atoms: _579  and  _581
REMARK  237  A    between atoms: _581  and  _582
REMARK  238  A    between atoms: _581  and  _584
REMARK  239  A    between atoms: _584  and  _585
REMARK  240  A    between atoms: _590  and  _592
REMARK  241  A    between atoms: _592  and  _593
REMARK  242  A    between atoms: _592  and  _595
REMARK  243  A    between atoms: _595  and  _596
REMARK  244  A    between atoms: _596  and  _597
REMARK  245  A    between atoms: _604  and  _605
REMARK  246  A    between atoms: _605  and  _621
REMARK  247  A    between atoms: _606  and  _608
REMARK  248  A    between atoms: _608  and  _609
REMARK  249  A    between atoms: _609  and  _610
REMARK  250  A    between atoms: _614  and  _616
REMARK  251  A    between atoms: _616  and  _617
REMARK  252  A    between atoms: _616  and  _624
REMARK  253  A    between atoms: _617  and  _618
REMARK  254  A    between atoms: _618  and  _619
REMARK  255  A    between atoms: _619  and  _620
REMARK  256  A    between atoms: _620  and  _621
REMARK  257  A    between atoms: _626  and  _628
REMARK  258  A    between atoms: _628  and  _629
REMARK  259  A    between atoms: _628  and  _631
REMARK  260  A    between atoms: _631  and  _632
REMARK  261  A    between atoms: _635  and  _637
REMARK  262  A    between atoms: _637  and  _638
REMARK  263  A    between atoms: _640  and  _642
REMARK  264  A    between atoms: _642  and  _643
REMARK  265  A    between atoms: _646  and  _648
REMARK  266  A    between atoms: _648  and  _649
REMARK  267  A    between atoms: _648  and  _651
REMARK  268  A    between atoms: _651  and  _652
REMARK  269  A    between atoms: _657  and  _658
REMARK                            x       y       z     vdW  Elec       q    Type
REMARK                         _______ _______ _______ _____ _____    ______ ____
ROOT
ATOM      1  O   HOH     1      30.541  23.541  32.853  0.00  0.00    +0.000 OA
ENDROOT
TORSDOF 0
REMARK  Name = ../refined-set-2016/2qrp/2qrp_pocket.pdb
REMARK  269 active torsions:
REMARK  status: ('A' for Active; 'I' for Inactive)
REMARK    1  A    between atoms: _1  and  _3
REMARK    2  A    between atoms: _3  and  _4
REMARK    3  A    between atoms: _3  and  _6
REMARK    4  A    between atoms: _6  and  _7
REMARK    5  A    between atoms: _12  and  _13
REMARK    6  A    between atoms: _15  and  _17
REMARK    7  A    between atoms: _17  and  _18
REMARK    8  A    between atoms: _17  and  _20
REMARK    9  A    between atoms: _20  and  _21
REMARK   10  A    between atoms: _24  and  _26
REMARK   11  A    between atoms: _26  and  _27
REMARK   12  A    between atoms: _26  and  _29
REMARK   13  A    between atoms: _29  and  _30
REMARK   14  A    between atoms: _30  and  _31
REMARK   15  A    between atoms: _34  and  _36
REMARK   16  A    between atoms: _36  and  _37
REMARK   17  A    between atoms: _39  and  _41
REMARK   18  A    between atoms: _41  and  _42
REMARK   19  A    between atoms: _41  and  _44
REMARK   20  A    between atoms: _44  and  _45
REMARK   21  A    between atoms: _50  and  _52
REMARK   22  A    between atoms: _52  and  _53
REMARK   23  A    between atoms: _55  and  _57
REMARK   24  A    between atoms: _57  and  _58
REMARK   25  A    between atoms: _60  and  _62
REMARK   26  A    between atoms: _62  and  _63
REMARK   27  A    between atoms: _62  and  _65
REMARK   28  A    between atoms: _65  and  _66
REMARK   29  A    between atoms: _69  and  _71
REMARK   30  A    between atoms: _71  and  _72
REMARK   31  A    between atoms: _74  and  _76
REMARK   32  A    between atoms: _76  and  _77
REMARK   33  A    between atoms: _76  and  _79
REMARK   34  A    between atoms: _79  and  _80
REMARK   35  A    between atoms: _80  and  _81
REMARK   36  A    between atoms: _81  and  _82
REMARK   37  A    between atoms: _91  and  _93
REMARK   38  A    between atoms: _93  and  _94
REMARK   39  A    between atoms: _93  and  _96
REMARK   40  A    between atoms: _96  and  _97
REMARK   41  A    between atoms: _100  and  _102
REMARK   42  A    between atoms: _102  and  _103
REMARK   43  A    between atoms: _106  and  _108
REMARK   44  A    between atoms: _108  and  _109
REMARK   45  A    between atoms: _108  and  _111
REMARK   46  A    between atoms: _111  and  _112
REMARK   47  A    between atoms: _118  and  _120
REMARK   48  A    between atoms: _120  and  _121
REMARK   49  A    between atoms: _120  and  _123
REMARK   50  A    between atoms: _123  and  _124
REMARK   51  A    between atoms: _127  and  _129
REMARK   52  A    between atoms: _129  and  _130
REMARK   53  A    between atoms: _129  and  _132
REMARK   54  A    between atoms: _132  and  _133
REMARK   55  A    between atoms: _138  and  _139
REMARK   56  A    between atoms: _142  and  _143
REMARK   57  A    between atoms: _148  and  _150
REMARK   58  A    between atoms: _150  and  _151
REMARK   59  A    between atoms: _150  and  _153
REMARK   60  A    between atoms: _153  and  _154
REMARK   61  A    between atoms: _159  and  _161
REMARK   62  A    between atoms: _161  and  _162
REMARK   63  A    between atoms: _161  and  _164
REMARK   64  A    between atoms: _164  and  _165
REMARK   65  A    between atoms: _168  and  _170
REMARK   66  A    between atoms: _170  and  _171
REMARK   67  A    between atoms: _170  and  _173
REMARK   68  A    between atoms: _173  and  _174
REMARK   69  A    between atoms: _179  and  _181
REMARK   70  A    between atoms: _181  and  _182
REMARK   71  A    between atoms: _181  and  _184
REMARK   72  A    between atoms: _184  and  _185
REMARK   73  A    between atoms: _191  and  _193
REMARK   74  A    between atoms: _193  and  _194
REMARK   75  A    between atoms: _193  and  _196
REMARK   76  A    between atoms: _196  and  _197
REMARK   77  A    between atoms: _203  and  _205
REMARK   78  A    between atoms: _205  and  _206
REMARK   79  A    between atoms: _205  and  _208
REMARK   80  A    between atoms: _208  and  _209
REMARK   81  A    between atoms: _209  and  _210
REMARK   82  A    between atoms: _213  and  _215
REMARK   83  A    between atoms: _215  and  _216
REMARK   84  A    between atoms: _215  and  _218
REMARK   85  A    between atoms: _218  and  _219
REMARK   86  A    between atoms: _219  and  _220
REMARK   87  A    between atoms: _220  and  _221
REMARK   88  A    between atoms: _230  and  _232
REMARK   89  A    between atoms: _232  and  _233
REMARK   90  A    between atoms: _232  and  _235
REMARK   91  A    between atoms: _235  and  _236
REMARK   92  A    between atoms: _236  and  _237
REMARK   93  A    between atoms: _240  and  _242
REMARK   94  A    between atoms: _242  and  _243
REMARK   95  A    between atoms: _242  and  _245
REMARK   96  A    between atoms: _245  and  _246
REMARK   97  A    between atoms: _251  and  _253
REMARK   98  A    between atoms: _253  and  _254
REMARK   99  A    between atoms: _253  and  _256
REMARK  100  A    between atoms: _256  and  _257
REMARK  101  A    between atoms: _260  and  _262
REMARK  102  A    between atoms: _262  and  _263
REMARK  103  A    between atoms: _262  and  _265
REMARK  104  A    between atoms: _265  and  _266
REMARK  105  A    between atoms: _269  and  _271
REMARK  106  A    between atoms: _271  and  _272
REMARK  107  A    between atoms: _271  and  _274
REMARK  108  A    between atoms: _274  and  _275
REMARK  109  A    between atoms: _280  and  _282
REMARK  110  A    between atoms: _282  and  _283
REMARK  111  A    between atoms: _282  and  _285
REMARK  112  A    between atoms: _285  and  _286
REMARK  113  A    between atoms: _289  and  _291
REMARK  114  A    between atoms: _291  and  _292
REMARK  115  A    between atoms: _291  and  _294
REMARK  116  A    between atoms: _294  and  _295
REMARK  117  A    between atoms: _300  and  _302
REMARK  118  A    between atoms: _302  and  _303
REMARK  119  A    between atoms: _302  and  _305
REMARK  120  A    between atoms: _305  and  _306
REMARK  121  A    between atoms: _311  and  _313
REMARK  122  A    between atoms: _313  and  _314
REMARK  123  A    between atoms: _313  and  _316
REMARK  124  A    between atoms: _316  and  _317
REMARK  125  A    between atoms: _320  and  _322
REMARK  126  A    between atoms: _322  and  _323
REMARK  127  A    between atoms: _322  and  _325
REMARK  128  A    between atoms: _328  and  _330
REMARK  129  A    between atoms: _330  and  _331
REMARK  130  A    between atoms: _330  and  _333
REMARK  131  A    between atoms: _333  and  _334
REMARK  132  A    between atoms: _337  and  _339
REMARK  133  A    between atoms: _339  and  _340
REMARK  134  A    between atoms: _339  and  _342
REMARK  135  A    between atoms: _342  and  _343
REMARK  136  A    between atoms: _343  and  _344
REMARK  137  A    between atoms: _347  and  _349
REMARK  138  A    between atoms: _349  and  _350
REMARK  139  A    between atoms: _353  and  _355
REMARK  140  A    between atoms: _355  and  _356
REMARK  141  A    between atoms: _355  and  _358
REMARK  142  A    between atoms: _358  and  _359
REMARK  143  A    between atoms: _362  and  _364
REMARK  144  A    between atoms: _364  and  _365
REMARK  145  A    between atoms: _364  and  _367
REMARK  146  A    between atoms: _367  and  _368
REMARK  147  A    between atoms: _368  and  _369
REMARK  148  A    between atoms: _372  and  _374
REMARK  149  A    between atoms: _374  and  _375
REMARK  150  A    between atoms: _374  and  _377
REMARK  151  A    between atoms: _377  and  _378
REMARK  152  A    between atoms: _383  and  _385
REMARK  153  A    between atoms: _385  and  _386
REMARK  154  A    between atoms: _388  and  _390
REMARK  155  A    between atoms: _390  and  _391
REMARK  156  A    between atoms: _390  and  _393
REMARK  157  A    between atoms: _396  and  _398
REMARK  158  A    between atoms: _398  and  _399
REMARK  159  A    between atoms: _402  and  _404
REMARK  160  A    between atoms: _404  and  _405
REMARK  161  A    between atoms: _404  and  _407
REMARK  162  A    between atoms: _407  and  _408
REMARK  163  A    between atoms: _413  and  _415
REMARK  164  A    between atoms: _415  and  _416
REMARK  165  A    between atoms: _415  and  _418
REMARK  166  A    between atoms: _418  and  _419
REMARK  167  A    between atoms: _419  and  _420
REMARK  168  A    between atoms: _420  and  _421
REMARK  169  A    between atoms: _421  and  _422
REMARK  170  A    between atoms: _426  and  _428
REMARK  171  A    between atoms: _428  and  _429
REMARK  172  A    between atoms: _428  and  _431
REMARK  173  A    between atoms: _431  and  _432
REMARK  174  A    between atoms: _435  and  _437
REMARK  175  A    between atoms: _437  and  _438
REMARK  176  A    between atoms: _437  and  _440
REMARK  177  A    between atoms: _440  and  _441
REMARK  178  A    between atoms: _446  and  _448
REMARK  179  A    between atoms: _448  and  _449
REMARK  180  A    between atoms: _451  and  _453
REMARK  181  A    between atoms: _453  and  _454
REMARK  182  A    between atoms: _453  and  _456
REMARK  183  A    between atoms: _456  and  _457
REMARK  184  A    between atoms: _457  and  _458
REMARK  185  A    between atoms: _458  and  _459
REMARK  186  A    between atoms: _459  and  _460
REMARK  187  A    between atoms: _464  and  _466
REMARK  188  A    between atoms: _466  and  _467
REMARK  189  A    between atoms: _466  and  _469
REMARK  190  A    between atoms: _469  and  _470
REMARK  191  A    between atoms: _470  and  _471
REMARK  192  A    between atoms: _471  and  _472
REMARK  193  A    between atoms: _481  and  _483
REMARK  194  A    between atoms: _483  and  _484
REMARK  195  A    between atoms: _483  and  _486
REMARK  196  A    between atoms: _486  and  _487
REMARK  197  A    between atoms: _492  and  _494
REMARK  198  A    between atoms: _494  and  _495
REMARK  199  A    between atoms: _494  and  _497
REMARK  200  A    between atoms: _497  and  _498
REMARK  201  A    between atoms: _503  and  _504
REMARK  202  A    between atoms: _506  and  _508
REMARK  203  A    between atoms: _508  and  _509
REMARK  204  A    between atoms: _508  and  _511
REMARK  205  A    between atoms: _511  and  _512
REMARK  206  A    between atoms: _512  and  _513
REMARK  207  A    between atoms: _513  and  _514
REMARK  208  A    between atoms: _514  and  _515
REMARK  209  A    between atoms: _519  and  _521
REMARK  210  A    between atoms: _521  and  _522
REMARK  211  A    between atoms: _521  and  _524
REMARK  212  A    between atoms: _524  and  _525
REMARK  213  A    between atoms: _527  and  _529
REMARK  214  A    between atoms: _529  and  _530
REMARK  215  A    between atoms: _529  and  _532
REMARK  216  A    between atoms: _532  and  _533
REMARK  217  A    between atoms: _536  and  _538
REMARK  218  A    between atoms: _538  and  _539
REMARK  219  A    between atoms: _538  and  _541
REMARK  220  A    between atoms: _541  and  _542
REMARK  221  A    between atoms: _542  and  _543
REMARK  222  A    between atoms: _546  and  _548
REMARK  223  A    between atoms: _548  and  _549
REMARK  224  A    between atoms: _552  and  _554
REMARK  225  A    between atoms: _554  and  _555
REMARK  226  A    between atoms: _554  and  _557
REMARK  227  A    between atoms: _557  and  _558
REMARK  228  A    between atoms: _560  and  _562
REMARK  229  A    between atoms: _562  and  _563
REMARK  230  A    between atoms: _565  and  _567
REMARK  231  A    between atoms: _567  and  _568
REMARK  232  A    between atoms: _567  and  _570
REMARK  233  A    between atoms: _570  and  _571
REMARK  234  A    between atoms: _574  and  _576
REMARK  235  A    between atoms: _576  and  _577
REMARK  236  A    between atoms: _579  and  _581
REMARK  237  A    between atoms: _581  and  _582
REMARK  238  A    between atoms: _581  and  _584
REMARK  239  A    between atoms: _584  and  _585
REMARK  240  A    between atoms: _590  and  _592
REMARK  241  A    between atoms: _592  and  _593
REMARK  242  A    between atoms: _592  and  _595
REMARK  243  A    between atoms: _595  and  _596
REMARK  244  A    between atoms: _596  and  _597
REMARK  245  A    between atoms: _604  and  _605
REMARK  246  A    between atoms: _605  and  _621
REMARK  247  A    between atoms: _606  and  _608
REMARK  248  A    between atoms: _608  and  _609
REMARK  249  A    between atoms: _609  and  _610
REMARK  250  A    between atoms: _614  and  _616
REMARK  251  A    between atoms: _616  and  _617
REMARK  252  A    between atoms: _616  and  _624
REMARK  253  A    between atoms: _617  and  _618
REMARK  254  A    between atoms: _618  and  _619
REMARK  255  A    between atoms: _619  and  _620
REMARK  256  A    between atoms: _620  and  _621
REMARK  257  A    between atoms: _626  and  _628
REMARK  258  A    between atoms: _628  and  _629
REMARK  259  A    between atoms: _628  and  _631
REMARK  260  A    between atoms: _631  and  _632
REMARK  261  A    between atoms: _635  and  _637
REMARK  262  A    between atoms: _637  and  _638
REMARK  263  A    between atoms: _640  and  _642
REMARK  264  A    between atoms: _642  and  _643
REMARK  265  A    between atoms: _646  and  _648
REMARK  266  A    between atoms: _648  and  _649
REMARK  267  A    between atoms: _648  and  _651
REMARK  268  A    between atoms: _651  and  _652
REMARK  269  A    between atoms: _657  and  _658
REMARK                            x       y       z     vdW  Elec       q    Type
REMARK                         _______ _______ _______ _____ _____    ______ ____
ROOT
ATOM      1  O   HOH     1      28.915  21.700  25.886  0.00  0.00    +0.000 OA
ENDROOT
TORSDOF 0
REMARK  Name = ../refined-set-2016/2qrp/2qrp_pocket.pdb
REMARK  269 active torsions:
REMARK  status: ('A' for Active; 'I' for Inactive)
REMARK    1  A    between atoms: _1  and  _3
REMARK    2  A    between atoms: _3  and  _4
REMARK    3  A    between atoms: _3  and  _6
REMARK    4  A    between atoms: _6  and  _7
REMARK    5  A    between atoms: _12  and  _13
REMARK    6  A    between atoms: _15  and  _17
REMARK    7  A    between atoms: _17  and  _18
REMARK    8  A    between atoms: _17  and  _20
REMARK    9  A    between atoms: _20  and  _21
REMARK   10  A    between atoms: _24  and  _26
REMARK   11  A    between atoms: _26  and  _27
REMARK   12  A    between atoms: _26  and  _29
REMARK   13  A    between atoms: _29  and  _30
REMARK   14  A    between atoms: _30  and  _31
REMARK   15  A    between atoms: _34  and  _36
REMARK   16  A    between atoms: _36  and  _37
REMARK   17  A    between atoms: _39  and  _41
REMARK   18  A    between atoms: _41  and  _42
REMARK   19  A    between atoms: _41  and  _44
REMARK   20  A    between atoms: _44  and  _45
REMARK   21  A    between atoms: _50  and  _52
REMARK   22  A    between atoms: _52  and  _53
REMARK   23  A    between atoms: _55  and  _57
REMARK   24  A    between atoms: _57  and  _58
REMARK   25  A    between atoms: _60  and  _62
REMARK   26  A    between atoms: _62  and  _63
REMARK   27  A    between atoms: _62  and  _65
REMARK   28  A    between atoms: _65  and  _66
REMARK   29  A    between atoms: _69  and  _71
REMARK   30  A    between atoms: _71  and  _72
REMARK   31  A    between atoms: _74  and  _76
REMARK   32  A    between atoms: _76  and  _77
REMARK   33  A    between atoms: _76  and  _79
REMARK   34  A    between atoms: _79  and  _80
REMARK   35  A    between atoms: _80  and  _81
REMARK   36  A    between atoms: _81  and  _82
REMARK   37  A    between atoms: _91  and  _93
REMARK   38  A    between atoms: _93  and  _94
REMARK   39  A    between atoms: _93  and  _96
REMARK   40  A    between atoms: _96  and  _97
REMARK   41  A    between atoms: _100  and  _102
REMARK   42  A    between atoms: _102  and  _103
REMARK   43  A    between atoms: _106  and  _108
REMARK   44  A    between atoms: _108  and  _109
REMARK   45  A    between atoms: _108  and  _111
REMARK   46  A    between atoms: _111  and  _112
REMARK   47  A    between atoms: _118  and  _120
REMARK   48  A    between atoms: _120  and  _121
REMARK   49  A    between atoms: _120  and  _123
REMARK   50  A    between atoms: _123  and  _124
REMARK   51  A    between atoms: _127  and  _129
REMARK   52  A    between atoms: _129  and  _130
REMARK   53  A    between atoms: _129  and  _132
REMARK   54  A    between atoms: _132  and  _133
REMARK   55  A    between atoms: _138  and  _139
REMARK   56  A    between atoms: _142  and  _143
REMARK   57  A    between atoms: _148  and  _150
REMARK   58  A    between atoms: _150  and  _151
REMARK   59  A    between atoms: _150  and  _153
REMARK   60  A    between atoms: _153  and  _154
REMARK   61  A    between atoms: _159  and  _161
REMARK   62  A    between atoms: _161  and  _162
REMARK   63  A    between atoms: _161  and  _164
REMARK   64  A    between atoms: _164  and  _165
REMARK   65  A    between atoms: _168  and  _170
REMARK   66  A    between atoms: _170  and  _171
REMARK   67  A    between atoms: _170  and  _173
REMARK   68  A    between atoms: _173  and  _174
REMARK   69  A    between atoms: _179  and  _181
REMARK   70  A    between atoms: _181  and  _182
REMARK   71  A    between atoms: _181  and  _184
REMARK   72  A    between atoms: _184  and  _185
REMARK   73  A    between atoms: _191  and  _193
REMARK   74  A    between atoms: _193  and  _194
REMARK   75  A    between atoms: _193  and  _196
REMARK   76  A    between atoms: _196  and  _197
REMARK   77  A    between atoms: _203  and  _205
REMARK   78  A    between atoms: _205  and  _206
REMARK   79  A    between atoms: _205  and  _208
REMARK   80  A    between atoms: _208  and  _209
REMARK   81  A    between atoms: _209  and  _210
REMARK   82  A    between atoms: _213  and  _215
REMARK   83  A    between atoms: _215  and  _216
REMARK   84  A    between atoms: _215  and  _218
REMARK   85  A    between atoms: _218  and  _219
REMARK   86  A    between atoms: _219  and  _220
REMARK   87  A    between atoms: _220  and  _221
REMARK   88  A    between atoms: _230  and  _232
REMARK   89  A    between atoms: _232  and  _233
REMARK   90  A    between atoms: _232  and  _235
REMARK   91  A    between atoms: _235  and  _236
REMARK   92  A    between atoms: _236  and  _237
REMARK   93  A    between atoms: _240  and  _242
REMARK   94  A    between atoms: _242  and  _243
REMARK   95  A    between atoms: _242  and  _245
REMARK   96  A    between atoms: _245  and  _246
REMARK   97  A    between atoms: _251  and  _253
REMARK   98  A    between atoms: _253  and  _254
REMARK   99  A    between atoms: _253  and  _256
REMARK  100  A    between atoms: _256  and  _257
REMARK  101  A    between atoms: _260  and  _262
REMARK  102  A    between atoms: _262  and  _263
REMARK  103  A    between atoms: _262  and  _265
REMARK  104  A    between atoms: _265  and  _266
REMARK  105  A    between atoms: _269  and  _271
REMARK  106  A    between atoms: _271  and  _272
REMARK  107  A    between atoms: _271  and  _274
REMARK  108  A    between atoms: _274  and  _275
REMARK  109  A    between atoms: _280  and  _282
REMARK  110  A    between atoms: _282  and  _283
REMARK  111  A    between atoms: _282  and  _285
REMARK  112  A    between atoms: _285  and  _286
REMARK  113  A    between atoms: _289  and  _291
REMARK  114  A    between atoms: _291  and  _292
REMARK  115  A    between atoms: _291  and  _294
REMARK  116  A    between atoms: _294  and  _295
REMARK  117  A    between atoms: _300  and  _302
REMARK  118  A    between atoms: _302  and  _303
REMARK  119  A    between atoms: _302  and  _305
REMARK  120  A    between atoms: _305  and  _306
REMARK  121  A    between atoms: _311  and  _313
REMARK  122  A    between atoms: _313  and  _314
REMARK  123  A    between atoms: _313  and  _316
REMARK  124  A    between atoms: _316  and  _317
REMARK  125  A    between atoms: _320  and  _322
REMARK  126  A    between atoms: _322  and  _323
REMARK  127  A    between atoms: _322  and  _325
REMARK  128  A    between atoms: _328  and  _330
REMARK  129  A    between atoms: _330  and  _331
REMARK  130  A    between atoms: _330  and  _333
REMARK  131  A    between atoms: _333  and  _334
REMARK  132  A    between atoms: _337  and  _339
REMARK  133  A    between atoms: _339  and  _340
REMARK  134  A    between atoms: _339  and  _342
REMARK  135  A    between atoms: _342  and  _343
REMARK  136  A    between atoms: _343  and  _344
REMARK  137  A    between atoms: _347  and  _349
REMARK  138  A    between atoms: _349  and  _350
REMARK  139  A    between atoms: _353  and  _355
REMARK  140  A    between atoms: _355  and  _356
REMARK  141  A    between atoms: _355  and  _358
REMARK  142  A    between atoms: _358  and  _359
REMARK  143  A    between atoms: _362  and  _364
REMARK  144  A    between atoms: _364  and  _365
REMARK  145  A    between atoms: _364  and  _367
REMARK  146  A    between atoms: _367  and  _368
REMARK  147  A    between atoms: _368  and  _369
REMARK  148  A    between atoms: _372  and  _374
REMARK  149  A    between atoms: _374  and  _375
REMARK  150  A    between atoms: _374  and  _377
REMARK  151  A    between atoms: _377  and  _378
REMARK  152  A    between atoms: _383  and  _385
REMARK  153  A    between atoms: _385  and  _386
REMARK  154  A    between atoms: _388  and  _390
REMARK  155  A    between atoms: _390  and  _391
REMARK  156  A    between atoms: _390  and  _393
REMARK  157  A    between atoms: _396  and  _398
REMARK  158  A    between atoms: _398  and  _399
REMARK  159  A    between atoms: _402  and  _404
REMARK  160  A    between atoms: _404  and  _405
REMARK  161  A    between atoms: _404  and  _407
REMARK  162  A    between atoms: _407  and  _408
REMARK  163  A    between atoms: _413  and  _415
REMARK  164  A    between atoms: _415  and  _416
REMARK  165  A    between atoms: _415  and  _418
REMARK  166  A    between atoms: _418  and  _419
REMARK  167  A    between atoms: _419  and  _420
REMARK  168  A    between atoms: _420  and  _421
REMARK  169  A    between atoms: _421  and  _422
REMARK  170  A    between atoms: _426  and  _428
REMARK  171  A    between atoms: _428  and  _429
REMARK  172  A    between atoms: _428  and  _431
REMARK  173  A    between atoms: _431  and  _432
REMARK  174  A    between atoms: _435  and  _437
REMARK  175  A    between atoms: _437  and  _438
REMARK  176  A    between atoms: _437  and  _440
REMARK  177  A    between atoms: _440  and  _441
REMARK  178  A    between atoms: _446  and  _448
REMARK  179  A    between atoms: _448  and  _449
REMARK  180  A    between atoms: _451  and  _453
REMARK  181  A    between atoms: _453  and  _454
REMARK  182  A    between atoms: _453  and  _456
REMARK  183  A    between atoms: _456  and  _457
REMARK  184  A    between atoms: _457  and  _458
REMARK  185  A    between atoms: _458  and  _459
REMARK  186  A    between atoms: _459  and  _460
REMARK  187  A    between atoms: _464  and  _466
REMARK  188  A    between atoms: _466  and  _467
REMARK  189  A    between atoms: _466  and  _469
REMARK  190  A    between atoms: _469  and  _470
REMARK  191  A    between atoms: _470  and  _471
REMARK  192  A    between atoms: _471  and  _472
REMARK  193  A    between atoms: _481  and  _483
REMARK  194  A    between atoms: _483  and  _484
REMARK  195  A    between atoms: _483  and  _486
REMARK  196  A    between atoms: _486  and  _487
REMARK  197  A    between atoms: _492  and  _494
REMARK  198  A    between atoms: _494  and  _495
REMARK  199  A    between atoms: _494  and  _497
REMARK  200  A    between atoms: _497  and  _498
REMARK  201  A    between atoms: _503  and  _504
REMARK  202  A    between atoms: _506  and  _508
REMARK  203  A    between atoms: _508  and  _509
REMARK  204  A    between atoms: _508  and  _511
REMARK  205  A    between atoms: _511  and  _512
REMARK  206  A    between atoms: _512  and  _513
REMARK  207  A    between atoms: _513  and  _514
REMARK  208  A    between atoms: _514  and  _515
REMARK  209  A    between atoms: _519  and  _521
REMARK  210  A    between atoms: _521  and  _522
REMARK  211  A    between atoms: _521  and  _524
REMARK  212  A    between atoms: _524  and  _525
REMARK  213  A    between atoms: _527  and  _529
REMARK  214  A    between atoms: _529  and  _530
REMARK  215  A    between atoms: _529  and  _532
REMARK  216  A    between atoms: _532  and  _533
REMARK  217  A    between atoms: _536  and  _538
REMARK  218  A    between atoms: _538  and  _539
REMARK  219  A    between atoms: _538  and  _541
REMARK  220  A    between atoms: _541  and  _542
REMARK  221  A    between atoms: _542  and  _543
REMARK  222  A    between atoms: _546  and  _548
REMARK  223  A    between atoms: _548  and  _549
REMARK  224  A    between atoms: _552  and  _554
REMARK  225  A    between atoms: _554  and  _555
REMARK  226  A    between atoms: _554  and  _557
REMARK  227  A    between atoms: _557  and  _558
REMARK  228  A    between atoms: _560  and  _562
REMARK  229  A    between atoms: _562  and  _563
REMARK  230  A    between atoms: _565  and  _567
REMARK  231  A    between atoms: _567  and  _568
REMARK  232  A    between atoms: _567  and  _570
REMARK  233  A    between atoms: _570  and  _571
REMARK  234  A    between atoms: _574  and  _576
REMARK  235  A    between atoms: _576  and  _577
REMARK  236  A    between atoms: _579  and  _581
REMARK  237  A    between atoms: _581  and  _582
REMARK  238  A    between atoms: _581  and  _584
REMARK  239  A    between atoms: _584  and  _585
REMARK  240  A    between atoms: _590  and  _592
REMARK  241  A    between atoms: _592  and  _593
REMARK  242  A    between atoms: _592  and  _595
REMARK  243  A    between atoms: _595  and  _596
REMARK  244  A    between atoms: _596  and  _597
REMARK  245  A    between atoms: _604  and  _605
REMARK  246  A    between atoms: _605  and  _621
REMARK  247  A    between atoms: _606  and  _608
REMARK  248  A    between atoms: _608  and  _609
REMARK  249  A    between atoms: _609  and  _610
REMARK  250  A    between atoms: _614  and  _616
REMARK  251  A    between atoms: _616  and  _617
REMARK  252  A    between atoms: _616  and  _624
REMARK  253  A    between atoms: _617  and  _618
REMARK  254  A    between atoms: _618  and  _619
REMARK  255  A    between atoms: _619  and  _620
REMARK  256  A    between atoms: _620  and  _621
REMARK  257  A    between atoms: _626  and  _628
REMARK  258  A    between atoms: _628  and  _629
REMARK  259  A    between atoms: _628  and  _631
REMARK  260  A    between atoms: _631  and  _632
REMARK  261  A    between atoms: _635  and  _637
REMARK  262  A    between atoms: _637  and  _638
REMARK  263  A    between atoms: _640  and  _642
REMARK  264  A    between atoms: _642  and  _643
REMARK  265  A    between atoms: _646  and  _648
REMARK  266  A    between atoms: _648  and  _649
REMARK  267  A    between atoms: _648  and  _651
REMARK  268  A    between atoms: _651  and  _652
REMARK  269  A    between atoms: _657  and  _658
REMARK                            x       y       z     vdW  Elec       q    Type
REMARK                         _______ _______ _______ _____ _____    ______ ____
ROOT
ATOM      1  O   HOH     1      28.516  23.673  18.966  0.00  0.00    +0.000 OA
ENDROOT
TORSDOF 0
REMARK  Name = ../refined-set-2016/2qrp/2qrp_pocket.pdb
REMARK  269 active torsions:
REMARK  status: ('A' for Active; 'I' for Inactive)
REMARK    1  A    between atoms: _1  and  _3
REMARK    2  A    between atoms: _3  and  _4
REMARK    3  A    between atoms: _3  and  _6
REMARK    4  A    between atoms: _6  and  _7
REMARK    5  A    between atoms: _12  and  _13
REMARK    6  A    between atoms: _15  and  _17
REMARK    7  A    between atoms: _17  and  _18
REMARK    8  A    between atoms: _17  and  _20
REMARK    9  A    between atoms: _20  and  _21
REMARK   10  A    between atoms: _24  and  _26
REMARK   11  A    between atoms: _26  and  _27
REMARK   12  A    between atoms: _26  and  _29
REMARK   13  A    between atoms: _29  and  _30
REMARK   14  A    between atoms: _30  and  _31
REMARK   15  A    between atoms: _34  and  _36
REMARK   16  A    between atoms: _36  and  _37
REMARK   17  A    between atoms: _39  and  _41
REMARK   18  A    between atoms: _41  and  _42
REMARK   19  A    between atoms: _41  and  _44
REMARK   20  A    between atoms: _44  and  _45
REMARK   21  A    between atoms: _50  and  _52
REMARK   22  A    between atoms: _52  and  _53
REMARK   23  A    between atoms: _55  and  _57
REMARK   24  A    between atoms: _57  and  _58
REMARK   25  A    between atoms: _60  and  _62
REMARK   26  A    between atoms: _62  and  _63
REMARK   27  A    between atoms: _62  and  _65
REMARK   28  A    between atoms: _65  and  _66
REMARK   29  A    between atoms: _69  and  _71
REMARK   30  A    between atoms: _71  and  _72
REMARK   31  A    between atoms: _74  and  _76
REMARK   32  A    between atoms: _76  and  _77
REMARK   33  A    between atoms: _76  and  _79
REMARK   34  A    between atoms: _79  and  _80
REMARK   35  A    between atoms: _80  and  _81
REMARK   36  A    between atoms: _81  and  _82
REMARK   37  A    between atoms: _91  and  _93
REMARK   38  A    between atoms: _93  and  _94
REMARK   39  A    between atoms: _93  and  _96
REMARK   40  A    between atoms: _96  and  _97
REMARK   41  A    between atoms: _100  and  _102
REMARK   42  A    between atoms: _102  and  _103
REMARK   43  A    between atoms: _106  and  _108
REMARK   44  A    between atoms: _108  and  _109
REMARK   45  A    between atoms: _108  and  _111
REMARK   46  A    between atoms: _111  and  _112
REMARK   47  A    between atoms: _118  and  _120
REMARK   48  A    between atoms: _120  and  _121
REMARK   49  A    between atoms: _120  and  _123
REMARK   50  A    between atoms: _123  and  _124
REMARK   51  A    between atoms: _127  and  _129
REMARK   52  A    between atoms: _129  and  _130
REMARK   53  A    between atoms: _129  and  _132
REMARK   54  A    between atoms: _132  and  _133
REMARK   55  A    between atoms: _138  and  _139
REMARK   56  A    between atoms: _142  and  _143
REMARK   57  A    between atoms: _148  and  _150
REMARK   58  A    between atoms: _150  and  _151
REMARK   59  A    between atoms: _150  and  _153
REMARK   60  A    between atoms: _153  and  _154
REMARK   61  A    between atoms: _159  and  _161
REMARK   62  A    between atoms: _161  and  _162
REMARK   63  A    between atoms: _161  and  _164
REMARK   64  A    between atoms: _164  and  _165
REMARK   65  A    between atoms: _168  and  _170
REMARK   66  A    between atoms: _170  and  _171
REMARK   67  A    between atoms: _170  and  _173
REMARK   68  A    between atoms: _173  and  _174
REMARK   69  A    between atoms: _179  and  _181
REMARK   70  A    between atoms: _181  and  _182
REMARK   71  A    between atoms: _181  and  _184
REMARK   72  A    between atoms: _184  and  _185
REMARK   73  A    between atoms: _191  and  _193
REMARK   74  A    between atoms: _193  and  _194
REMARK   75  A    between atoms: _193  and  _196
REMARK   76  A    between atoms: _196  and  _197
REMARK   77  A    between atoms: _203  and  _205
REMARK   78  A    between atoms: _205  and  _206
REMARK   79  A    between atoms: _205  and  _208
REMARK   80  A    between atoms: _208  and  _209
REMARK   81  A    between atoms: _209  and  _210
REMARK   82  A    between atoms: _213  and  _215
REMARK   83  A    between atoms: _215  and  _216
REMARK   84  A    between atoms: _215  and  _218
REMARK   85  A    between atoms: _218  and  _219
REMARK   86  A    between atoms: _219  and  _220
REMARK   87  A    between atoms: _220  and  _221
REMARK   88  A    between atoms: _230  and  _232
REMARK   89  A    between atoms: _232  and  _233
REMARK   90  A    between atoms: _232  and  _235
REMARK   91  A    between atoms: _235  and  _236
REMARK   92  A    between atoms: _236  and  _237
REMARK   93  A    between atoms: _240  and  _242
REMARK   94  A    between atoms: _242  and  _243
REMARK   95  A    between atoms: _242  and  _245
REMARK   96  A    between atoms: _245  and  _246
REMARK   97  A    between atoms: _251  and  _253
REMARK   98  A    between atoms: _253  and  _254
REMARK   99  A    between atoms: _253  and  _256
REMARK  100  A    between atoms: _256  and  _257
REMARK  101  A    between atoms: _260  and  _262
REMARK  102  A    between atoms: _262  and  _263
REMARK  103  A    between atoms: _262  and  _265
REMARK  104  A    between atoms: _265  and  _266
REMARK  105  A    between atoms: _269  and  _271
REMARK  106  A    between atoms: _271  and  _272
REMARK  107  A    between atoms: _271  and  _274
REMARK  108  A    between atoms: _274  and  _275
REMARK  109  A    between atoms: _280  and  _282
REMARK  110  A    between atoms: _282  and  _283
REMARK  111  A    between atoms: _282  and  _285
REMARK  112  A    between atoms: _285  and  _286
REMARK  113  A    between atoms: _289  and  _291
REMARK  114  A    between atoms: _291  and  _292
REMARK  115  A    between atoms: _291  and  _294
REMARK  116  A    between atoms: _294  and  _295
REMARK  117  A    between atoms: _300  and  _302
REMARK  118  A    between atoms: _302  and  _303
REMARK  119  A    between atoms: _302  and  _305
REMARK  120  A    between atoms: _305  and  _306
REMARK  121  A    between atoms: _311  and  _313
REMARK  122  A    between atoms: _313  and  _314
REMARK  123  A    between atoms: _313  and  _316
REMARK  124  A    between atoms: _316  and  _317
REMARK  125  A    between atoms: _320  and  _322
REMARK  126  A    between atoms: _322  and  _323
REMARK  127  A    between atoms: _322  and  _325
REMARK  128  A    between atoms: _328  and  _330
REMARK  129  A    between atoms: _330  and  _331
REMARK  130  A    between atoms: _330  and  _333
REMARK  131  A    between atoms: _333  and  _334
REMARK  132  A    between atoms: _337  and  _339
REMARK  133  A    between atoms: _339  and  _340
REMARK  134  A    between atoms: _339  and  _342
REMARK  135  A    between atoms: _342  and  _343
REMARK  136  A    between atoms: _343  and  _344
REMARK  137  A    between atoms: _347  and  _349
REMARK  138  A    between atoms: _349  and  _350
REMARK  139  A    between atoms: _353  and  _355
REMARK  140  A    between atoms: _355  and  _356
REMARK  141  A    between atoms: _355  and  _358
REMARK  142  A    between atoms: _358  and  _359
REMARK  143  A    between atoms: _362  and  _364
REMARK  144  A    between atoms: _364  and  _365
REMARK  145  A    between atoms: _364  and  _367
REMARK  146  A    between atoms: _367  and  _368
REMARK  147  A    between atoms: _368  and  _369
REMARK  148  A    between atoms: _372  and  _374
REMARK  149  A    between atoms: _374  and  _375
REMARK  150  A    between atoms: _374  and  _377
REMARK  151  A    between atoms: _377  and  _378
REMARK  152  A    between atoms: _383  and  _385
REMARK  153  A    between atoms: _385  and  _386
REMARK  154  A    between atoms: _388  and  _390
REMARK  155  A    between atoms: _390  and  _391
REMARK  156  A    between atoms: _390  and  _393
REMARK  157  A    between atoms: _396  and  _398
REMARK  158  A    between atoms: _398  and  _399
REMARK  159  A    between atoms: _402  and  _404
REMARK  160  A    between atoms: _404  and  _405
REMARK  161  A    between atoms: _404  and  _407
REMARK  162  A    between atoms: _407  and  _408
REMARK  163  A    between atoms: _413  and  _415
REMARK  164  A    between atoms: _415  and  _416
REMARK  165  A    between atoms: _415  and  _418
REMARK  166  A    between atoms: _418  and  _419
REMARK  167  A    between atoms: _419  and  _420
REMARK  168  A    between atoms: _420  and  _421
REMARK  169  A    between atoms: _421  and  _422
REMARK  170  A    between atoms: _426  and  _428
REMARK  171  A    between atoms: _428  and  _429
REMARK  172  A    between atoms: _428  and  _431
REMARK  173  A    between atoms: _431  and  _432
REMARK  174  A    between atoms: _435  and  _437
REMARK  175  A    between atoms: _437  and  _438
REMARK  176  A    between atoms: _437  and  _440
REMARK  177  A    between atoms: _440  and  _441
REMARK  178  A    between atoms: _446  and  _448
REMARK  179  A    between atoms: _448  and  _449
REMARK  180  A    between atoms: _451  and  _453
REMARK  181  A    between atoms: _453  and  _454
REMARK  182  A    between atoms: _453  and  _456
REMARK  183  A    between atoms: _456  and  _457
REMARK  184  A    between atoms: _457  and  _458
REMARK  185  A    between atoms: _458  and  _459
REMARK  186  A    between atoms: _459  and  _460
REMARK  187  A    between atoms: _464  and  _466
REMARK  188  A    between atoms: _466  and  _467
REMARK  189  A    between atoms: _466  and  _469
REMARK  190  A    between atoms: _469  and  _470
REMARK  191  A    between atoms: _470  and  _471
REMARK  192  A    between atoms: _471  and  _472
REMARK  193  A    between atoms: _481  and  _483
REMARK  194  A    between atoms: _483  and  _484
REMARK  195  A    between atoms: _483  and  _486
REMARK  196  A    between atoms: _486  and  _487
REMARK  197  A    between atoms: _492  and  _494
REMARK  198  A    between atoms: _494  and  _495
REMARK  199  A    between atoms: _494  and  _497
REMARK  200  A    between atoms: _497  and  _498
REMARK  201  A    between atoms: _503  and  _504
REMARK  202  A    between atoms: _506  and  _508
REMARK  203  A    between atoms: _508  and  _509
REMARK  204  A    between atoms: _508  and  _511
REMARK  205  A    between atoms: _511  and  _512
REMARK  206  A    between atoms: _512  and  _513
REMARK  207  A    between atoms: _513  and  _514
REMARK  208  A    between atoms: _514  and  _515
REMARK  209  A    between atoms: _519  and  _521
REMARK  210  A    between atoms: _521  and  _522
REMARK  211  A    between atoms: _521  and  _524
REMARK  212  A    between atoms: _524  and  _525
REMARK  213  A    between atoms: _527  and  _529
REMARK  214  A    between atoms: _529  and  _530
REMARK  215  A    between atoms: _529  and  _532
REMARK  216  A    between atoms: _532  and  _533
REMARK  217  A    between atoms: _536  and  _538
REMARK  218  A    between atoms: _538  and  _539
REMARK  219  A    between atoms: _538  and  _541
REMARK  220  A    between atoms: _541  and  _542
REMARK  221  A    between atoms: _542  and  _543
REMARK  222  A    between atoms: _546  and  _548
REMARK  223  A    between atoms: _548  and  _549
REMARK  224  A    between atoms: _552  and  _554
REMARK  225  A    between atoms: _554  and  _555
REMARK  226  A    between atoms: _554  and  _557
REMARK  227  A    between atoms: _557  and  _558
REMARK  228  A    between atoms: _560  and  _562
REMARK  229  A    between atoms: _562  and  _563
REMARK  230  A    between atoms: _565  and  _567
REMARK  231  A    between atoms: _567  and  _568
REMARK  232  A    between atoms: _567  and  _570
REMARK  233  A    between atoms: _570  and  _571
REMARK  234  A    between atoms: _574  and  _576
REMARK  235  A    between atoms: _576  and  _577
REMARK  236  A    between atoms: _579  and  _581
REMARK  237  A    between atoms: _581  and  _582
REMARK  238  A    between atoms: _581  and  _584
REMARK  239  A    between atoms: _584  and  _585
REMARK  240  A    between atoms: _590  and  _592
REMARK  241  A    between atoms: _592  and  _593
REMARK  242  A    between atoms: _592  and  _595
REMARK  243  A    between atoms: _595  and  _596
REMARK  244  A    between atoms: _596  and  _597
REMARK  245  A    between atoms: _604  and  _605
REMARK  246  A    between atoms: _605  and  _621
REMARK  247  A    between atoms: _606  and  _608
REMARK  248  A    between atoms: _608  and  _609
REMARK  249  A    between atoms: _609  and  _610
REMARK  250  A    between atoms: _614  and  _616
REMARK  251  A    between atoms: _616  and  _617
REMARK  252  A    between atoms: _616  and  _624
REMARK  253  A    between atoms: _617  and  _618
REMARK  254  A    between atoms: _618  and  _619
REMARK  255  A    between atoms: _619  and  _620
REMARK  256  A    between atoms: _620  and  _621
REMARK  257  A    between atoms: _626  and  _628
REMARK  258  A    between atoms: _628  and  _629
REMARK  259  A    between atoms: _628  and  _631
REMARK  260  A    between atoms: _631  and  _632
REMARK  261  A    between atoms: _635  and  _637
REMARK  262  A    between atoms: _637  and  _638
REMARK  263  A    between atoms: _640  and  _642
REMARK  264  A    between atoms: _642  and  _643
REMARK  265  A    between atoms: _646  and  _648
REMARK  266  A    between atoms: _648  and  _649
REMARK  267  A    between atoms: _648  and  _651
REMARK  268  A    between atoms: _651  and  _652
REMARK  269  A    between atoms: _657  and  _658
REMARK                            x       y       z     vdW  Elec       q    Type
REMARK                         _______ _______ _______ _____ _____    ______ ____
ROOT
ATOM      1  O   HOH     1      28.992  26.080  17.963  0.00  0.00    +0.000 OA
ENDROOT
TORSDOF 0
REMARK  Name = ../refined-set-2016/2qrp/2qrp_pocket.pdb
REMARK  269 active torsions:
REMARK  status: ('A' for Active; 'I' for Inactive)
REMARK    1  A    between atoms: _1  and  _3
REMARK    2  A    between atoms: _3  and  _4
REMARK    3  A    between atoms: _3  and  _6
REMARK    4  A    between atoms: _6  and  _7
REMARK    5  A    between atoms: _12  and  _13
REMARK    6  A    between atoms: _15  and  _17
REMARK    7  A    between atoms: _17  and  _18
REMARK    8  A    between atoms: _17  and  _20
REMARK    9  A    between atoms: _20  and  _21
REMARK   10  A    between atoms: _24  and  _26
REMARK   11  A    between atoms: _26  and  _27
REMARK   12  A    between atoms: _26  and  _29
REMARK   13  A    between atoms: _29  and  _30
REMARK   14  A    between atoms: _30  and  _31
REMARK   15  A    between atoms: _34  and  _36
REMARK   16  A    between atoms: _36  and  _37
REMARK   17  A    between atoms: _39  and  _41
REMARK   18  A    between atoms: _41  and  _42
REMARK   19  A    between atoms: _41  and  _44
REMARK   20  A    between atoms: _44  and  _45
REMARK   21  A    between atoms: _50  and  _52
REMARK   22  A    between atoms: _52  and  _53
REMARK   23  A    between atoms: _55  and  _57
REMARK   24  A    between atoms: _57  and  _58
REMARK   25  A    between atoms: _60  and  _62
REMARK   26  A    between atoms: _62  and  _63
REMARK   27  A    between atoms: _62  and  _65
REMARK   28  A    between atoms: _65  and  _66
REMARK   29  A    between atoms: _69  and  _71
REMARK   30  A    between atoms: _71  and  _72
REMARK   31  A    between atoms: _74  and  _76
REMARK   32  A    between atoms: _76  and  _77
REMARK   33  A    between atoms: _76  and  _79
REMARK   34  A    between atoms: _79  and  _80
REMARK   35  A    between atoms: _80  and  _81
REMARK   36  A    between atoms: _81  and  _82
REMARK   37  A    between atoms: _91  and  _93
REMARK   38  A    between atoms: _93  and  _94
REMARK   39  A    between atoms: _93  and  _96
REMARK   40  A    between atoms: _96  and  _97
REMARK   41  A    between atoms: _100  and  _102
REMARK   42  A    between atoms: _102  and  _103
REMARK   43  A    between atoms: _106  and  _108
REMARK   44  A    between atoms: _108  and  _109
REMARK   45  A    between atoms: _108  and  _111
REMARK   46  A    between atoms: _111  and  _112
REMARK   47  A    between atoms: _118  and  _120
REMARK   48  A    between atoms: _120  and  _121
REMARK   49  A    between atoms: _120  and  _123
REMARK   50  A    between atoms: _123  and  _124
REMARK   51  A    between atoms: _127  and  _129
REMARK   52  A    between atoms: _129  and  _130
REMARK   53  A    between atoms: _129  and  _132
REMARK   54  A    between atoms: _132  and  _133
REMARK   55  A    between atoms: _138  and  _139
REMARK   56  A    between atoms: _142  and  _143
REMARK   57  A    between atoms: _148  and  _150
REMARK   58  A    between atoms: _150  and  _151
REMARK   59  A    between atoms: _150  and  _153
REMARK   60  A    between atoms: _153  and  _154
REMARK   61  A    between atoms: _159  and  _161
REMARK   62  A    between atoms: _161  and  _162
REMARK   63  A    between atoms: _161  and  _164
REMARK   64  A    between atoms: _164  and  _165
REMARK   65  A    between atoms: _168  and  _170
REMARK   66  A    between atoms: _170  and  _171
REMARK   67  A    between atoms: _170  and  _173
REMARK   68  A    between atoms: _173  and  _174
REMARK   69  A    between atoms: _179  and  _181
REMARK   70  A    between atoms: _181  and  _182
REMARK   71  A    between atoms: _181  and  _184
REMARK   72  A    between atoms: _184  and  _185
REMARK   73  A    between atoms: _191  and  _193
REMARK   74  A    between atoms: _193  and  _194
REMARK   75  A    between atoms: _193  and  _196
REMARK   76  A    between atoms: _196  and  _197
REMARK   77  A    between atoms: _203  and  _205
REMARK   78  A    between atoms: _205  and  _206
REMARK   79  A    between atoms: _205  and  _208
REMARK   80  A    between atoms: _208  and  _209
REMARK   81  A    between atoms: _209  and  _210
REMARK   82  A    between atoms: _213  and  _215
REMARK   83  A    between atoms: _215  and  _216
REMARK   84  A    between atoms: _215  and  _218
REMARK   85  A    between atoms: _218  and  _219
REMARK   86  A    between atoms: _219  and  _220
REMARK   87  A    between atoms: _220  and  _221
REMARK   88  A    between atoms: _230  and  _232
REMARK   89  A    between atoms: _232  and  _233
REMARK   90  A    between atoms: _232  and  _235
REMARK   91  A    between atoms: _235  and  _236
REMARK   92  A    between atoms: _236  and  _237
REMARK   93  A    between atoms: _240  and  _242
REMARK   94  A    between atoms: _242  and  _243
REMARK   95  A    between atoms: _242  and  _245
REMARK   96  A    between atoms: _245  and  _246
REMARK   97  A    between atoms: _251  and  _253
REMARK   98  A    between atoms: _253  and  _254
REMARK   99  A    between atoms: _253  and  _256
REMARK  100  A    between atoms: _256  and  _257
REMARK  101  A    between atoms: _260  and  _262
REMARK  102  A    between atoms: _262  and  _263
REMARK  103  A    between atoms: _262  and  _265
REMARK  104  A    between atoms: _265  and  _266
REMARK  105  A    between atoms: _269  and  _271
REMARK  106  A    between atoms: _271  and  _272
REMARK  107  A    between atoms: _271  and  _274
REMARK  108  A    between atoms: _274  and  _275
REMARK  109  A    between atoms: _280  and  _282
REMARK  110  A    between atoms: _282  and  _283
REMARK  111  A    between atoms: _282  and  _285
REMARK  112  A    between atoms: _285  and  _286
REMARK  113  A    between atoms: _289  and  _291
REMARK  114  A    between atoms: _291  and  _292
REMARK  115  A    between atoms: _291  and  _294
REMARK  116  A    between atoms: _294  and  _295
REMARK  117  A    between atoms: _300  and  _302
REMARK  118  A    between atoms: _302  and  _303
REMARK  119  A    between atoms: _302  and  _305
REMARK  120  A    between atoms: _305  and  _306
REMARK  121  A    between atoms: _311  and  _313
REMARK  122  A    between atoms: _313  and  _314
REMARK  123  A    between atoms: _313  and  _316
REMARK  124  A    between atoms: _316  and  _317
REMARK  125  A    between atoms: _320  and  _322
REMARK  126  A    between atoms: _322  and  _323
REMARK  127  A    between atoms: _322  and  _325
REMARK  128  A    between atoms: _328  and  _330
REMARK  129  A    between atoms: _330  and  _331
REMARK  130  A    between atoms: _330  and  _333
REMARK  131  A    between atoms: _333  and  _334
REMARK  132  A    between atoms: _337  and  _339
REMARK  133  A    between atoms: _339  and  _340
REMARK  134  A    between atoms: _339  and  _342
REMARK  135  A    between atoms: _342  and  _343
REMARK  136  A    between atoms: _343  and  _344
REMARK  137  A    between atoms: _347  and  _349
REMARK  138  A    between atoms: _349  and  _350
REMARK  139  A    between atoms: _353  and  _355
REMARK  140  A    between atoms: _355  and  _356
REMARK  141  A    between atoms: _355  and  _358
REMARK  142  A    between atoms: _358  and  _359
REMARK  143  A    between atoms: _362  and  _364
REMARK  144  A    between atoms: _364  and  _365
REMARK  145  A    between atoms: _364  and  _367
REMARK  146  A    between atoms: _367  and  _368
REMARK  147  A    between atoms: _368  and  _369
REMARK  148  A    between atoms: _372  and  _374
REMARK  149  A    between atoms: _374  and  _375
REMARK  150  A    between atoms: _374  and  _377
REMARK  151  A    between atoms: _377  and  _378
REMARK  152  A    between atoms: _383  and  _385
REMARK  153  A    between atoms: _385  and  _386
REMARK  154  A    between atoms: _388  and  _390
REMARK  155  A    between atoms: _390  and  _391
REMARK  156  A    between atoms: _390  and  _393
REMARK  157  A    between atoms: _396  and  _398
REMARK  158  A    between atoms: _398  and  _399
REMARK  159  A    between atoms: _402  and  _404
REMARK  160  A    between atoms: _404  and  _405
REMARK  161  A    between atoms: _404  and  _407
REMARK  162  A    between atoms: _407  and  _408
REMARK  163  A    between atoms: _413  and  _415
REMARK  164  A    between atoms: _415  and  _416
REMARK  165  A    between atoms: _415  and  _418
REMARK  166  A    between atoms: _418  and  _419
REMARK  167  A    between atoms: _419  and  _420
REMARK  168  A    between atoms: _420  and  _421
REMARK  169  A    between atoms: _421  and  _422
REMARK  170  A    between atoms: _426  and  _428
REMARK  171  A    between atoms: _428  and  _429
REMARK  172  A    between atoms: _428  and  _431
REMARK  173  A    between atoms: _431  and  _432
REMARK  174  A    between atoms: _435  and  _437
REMARK  175  A    between atoms: _437  and  _438
REMARK  176  A    between atoms: _437  and  _440
REMARK  177  A    between atoms: _440  and  _441
REMARK  178  A    between atoms: _446  and  _448
REMARK  179  A    between atoms: _448  and  _449
REMARK  180  A    between atoms: _451  and  _453
REMARK  181  A    between atoms: _453  and  _454
REMARK  182  A    between atoms: _453  and  _456
REMARK  183  A    between atoms: _456  and  _457
REMARK  184  A    between atoms: _457  and  _458
REMARK  185  A    between atoms: _458  and  _459
REMARK  186  A    between atoms: _459  and  _460
REMARK  187  A    between atoms: _464  and  _466
REMARK  188  A    between atoms: _466  and  _467
REMARK  189  A    between atoms: _466  and  _469
REMARK  190  A    between atoms: _469  and  _470
REMARK  191  A    between atoms: _470  and  _471
REMARK  192  A    between atoms: _471  and  _472
REMARK  193  A    between atoms: _481  and  _483
REMARK  194  A    between atoms: _483  and  _484
REMARK  195  A    between atoms: _483  and  _486
REMARK  196  A    between atoms: _486  and  _487
REMARK  197  A    between atoms: _492  and  _494
REMARK  198  A    between atoms: _494  and  _495
REMARK  199  A    between atoms: _494  and  _497
REMARK  200  A    between atoms: _497  and  _498
REMARK  201  A    between atoms: _503  and  _504
REMARK  202  A    between atoms: _506  and  _508
REMARK  203  A    between atoms: _508  and  _509
REMARK  204  A    between atoms: _508  and  _511
REMARK  205  A    between atoms: _511  and  _512
REMARK  206  A    between atoms: _512  and  _513
REMARK  207  A    between atoms: _513  and  _514
REMARK  208  A    between atoms: _514  and  _515
REMARK  209  A    between atoms: _519  and  _521
REMARK  210  A    between atoms: _521  and  _522
REMARK  211  A    between atoms: _521  and  _524
REMARK  212  A    between atoms: _524  and  _525
REMARK  213  A    between atoms: _527  and  _529
REMARK  214  A    between atoms: _529  and  _530
REMARK  215  A    between atoms: _529  and  _532
REMARK  216  A    between atoms: _532  and  _533
REMARK  217  A    between atoms: _536  and  _538
REMARK  218  A    between atoms: _538  and  _539
REMARK  219  A    between atoms: _538  and  _541
REMARK  220  A    between atoms: _541  and  _542
REMARK  221  A    between atoms: _542  and  _543
REMARK  222  A    between atoms: _546  and  _548
REMARK  223  A    between atoms: _548  and  _549
REMARK  224  A    between atoms: _552  and  _554
REMARK  225  A    between atoms: _554  and  _555
REMARK  226  A    between atoms: _554  and  _557
REMARK  227  A    between atoms: _557  and  _558
REMARK  228  A    between atoms: _560  and  _562
REMARK  229  A    between atoms: _562  and  _563
REMARK  230  A    between atoms: _565  and  _567
REMARK  231  A    between atoms: _567  and  _568
REMARK  232  A    between atoms: _567  and  _570
REMARK  233  A    between atoms: _570  and  _571
REMARK  234  A    between atoms: _574  and  _576
REMARK  235  A    between atoms: _576  and  _577
REMARK  236  A    between atoms: _579  and  _581
REMARK  237  A    between atoms: _581  and  _582
REMARK  238  A    between atoms: _581  and  _584
REMARK  239  A    between atoms: _584  and  _585
REMARK  240  A    between atoms: _590  and  _592
REMARK  241  A    between atoms: _592  and  _593
REMARK  242  A    between atoms: _592  and  _595
REMARK  243  A    between atoms: _595  and  _596
REMARK  244  A    between atoms: _596  and  _597
REMARK  245  A    between atoms: _604  and  _605
REMARK  246  A    between atoms: _605  and  _621
REMARK  247  A    between atoms: _606  and  _608
REMARK  248  A    between atoms: _608  and  _609
REMARK  249  A    between atoms: _609  and  _610
REMARK  250  A    between atoms: _614  and  _616
REMARK  251  A    between atoms: _616  and  _617
REMARK  252  A    between atoms: _616  and  _624
REMARK  253  A    between atoms: _617  and  _618
REMARK  254  A    between atoms: _618  and  _619
REMARK  255  A    between atoms: _619  and  _620
REMARK  256  A    between atoms: _620  and  _621
REMARK  257  A    between atoms: _626  and  _628
REMARK  258  A    between atoms: _628  and  _629
REMARK  259  A    between atoms: _628  and  _631
REMARK  260  A    between atoms: _631  and  _632
REMARK  261  A    between atoms: _635  and  _637
REMARK  262  A    between atoms: _637  and  _638
REMARK  263  A    between atoms: _640  and  _642
REMARK  264  A    between atoms: _642  and  _643
REMARK  265  A    between atoms: _646  and  _648
REMARK  266  A    between atoms: _648  and  _649
REMARK  267  A    between atoms: _648  and  _651
REMARK  268  A    between atoms: _651  and  _652
REMARK  269  A    between atoms: _657  and  _658
REMARK                            x       y       z     vdW  Elec       q    Type
REMARK                         _______ _______ _______ _____ _____    ______ ____
ROOT
ATOM      1  O   HOH     1      28.795  27.424  20.325  0.00  0.00    +0.000 OA
ENDROOT
TORSDOF 0
REMARK  Name = ../refined-set-2016/2qrp/2qrp_pocket.pdb
REMARK  269 active torsions:
REMARK  status: ('A' for Active; 'I' for Inactive)
REMARK    1  A    between atoms: _1  and  _3
REMARK    2  A    between atoms: _3  and  _4
REMARK    3  A    between atoms: _3  and  _6
REMARK    4  A    between atoms: _6  and  _7
REMARK    5  A    between atoms: _12  and  _13
REMARK    6  A    between atoms: _15  and  _17
REMARK    7  A    between atoms: _17  and  _18
REMARK    8  A    between atoms: _17  and  _20
REMARK    9  A    between atoms: _20  and  _21
REMARK   10  A    between atoms: _24  and  _26
REMARK   11  A    between atoms: _26  and  _27
REMARK   12  A    between atoms: _26  and  _29
REMARK   13  A    between atoms: _29  and  _30
REMARK   14  A    between atoms: _30  and  _31
REMARK   15  A    between atoms: _34  and  _36
REMARK   16  A    between atoms: _36  and  _37
REMARK   17  A    between atoms: _39  and  _41
REMARK   18  A    between atoms: _41  and  _42
REMARK   19  A    between atoms: _41  and  _44
REMARK   20  A    between atoms: _44  and  _45
REMARK   21  A    between atoms: _50  and  _52
REMARK   22  A    between atoms: _52  and  _53
REMARK   23  A    between atoms: _55  and  _57
REMARK   24  A    between atoms: _57  and  _58
REMARK   25  A    between atoms: _60  and  _62
REMARK   26  A    between atoms: _62  and  _63
REMARK   27  A    between atoms: _62  and  _65
REMARK   28  A    between atoms: _65  and  _66
REMARK   29  A    between atoms: _69  and  _71
REMARK   30  A    between atoms: _71  and  _72
REMARK   31  A    between atoms: _74  and  _76
REMARK   32  A    between atoms: _76  and  _77
REMARK   33  A    between atoms: _76  and  _79
REMARK   34  A    between atoms: _79  and  _80
REMARK   35  A    between atoms: _80  and  _81
REMARK   36  A    between atoms: _81  and  _82
REMARK   37  A    between atoms: _91  and  _93
REMARK   38  A    between atoms: _93  and  _94
REMARK   39  A    between atoms: _93  and  _96
REMARK   40  A    between atoms: _96  and  _97
REMARK   41  A    between atoms: _100  and  _102
REMARK   42  A    between atoms: _102  and  _103
REMARK   43  A    between atoms: _106  and  _108
REMARK   44  A    between atoms: _108  and  _109
REMARK   45  A    between atoms: _108  and  _111
REMARK   46  A    between atoms: _111  and  _112
REMARK   47  A    between atoms: _118  and  _120
REMARK   48  A    between atoms: _120  and  _121
REMARK   49  A    between atoms: _120  and  _123
REMARK   50  A    between atoms: _123  and  _124
REMARK   51  A    between atoms: _127  and  _129
REMARK   52  A    between atoms: _129  and  _130
REMARK   53  A    between atoms: _129  and  _132
REMARK   54  A    between atoms: _132  and  _133
REMARK   55  A    between atoms: _138  and  _139
REMARK   56  A    between atoms: _142  and  _143
REMARK   57  A    between atoms: _148  and  _150
REMARK   58  A    between atoms: _150  and  _151
REMARK   59  A    between atoms: _150  and  _153
REMARK   60  A    between atoms: _153  and  _154
REMARK   61  A    between atoms: _159  and  _161
REMARK   62  A    between atoms: _161  and  _162
REMARK   63  A    between atoms: _161  and  _164
REMARK   64  A    between atoms: _164  and  _165
REMARK   65  A    between atoms: _168  and  _170
REMARK   66  A    between atoms: _170  and  _171
REMARK   67  A    between atoms: _170  and  _173
REMARK   68  A    between atoms: _173  and  _174
REMARK   69  A    between atoms: _179  and  _181
REMARK   70  A    between atoms: _181  and  _182
REMARK   71  A    between atoms: _181  and  _184
REMARK   72  A    between atoms: _184  and  _185
REMARK   73  A    between atoms: _191  and  _193
REMARK   74  A    between atoms: _193  and  _194
REMARK   75  A    between atoms: _193  and  _196
REMARK   76  A    between atoms: _196  and  _197
REMARK   77  A    between atoms: _203  and  _205
REMARK   78  A    between atoms: _205  and  _206
REMARK   79  A    between atoms: _205  and  _208
REMARK   80  A    between atoms: _208  and  _209
REMARK   81  A    between atoms: _209  and  _210
REMARK   82  A    between atoms: _213  and  _215
REMARK   83  A    between atoms: _215  and  _216
REMARK   84  A    between atoms: _215  and  _218
REMARK   85  A    between atoms: _218  and  _219
REMARK   86  A    between atoms: _219  and  _220
REMARK   87  A    between atoms: _220  and  _221
REMARK   88  A    between atoms: _230  and  _232
REMARK   89  A    between atoms: _232  and  _233
REMARK   90  A    between atoms: _232  and  _235
REMARK   91  A    between atoms: _235  and  _236
REMARK   92  A    between atoms: _236  and  _237
REMARK   93  A    between atoms: _240  and  _242
REMARK   94  A    between atoms: _242  and  _243
REMARK   95  A    between atoms: _242  and  _245
REMARK   96  A    between atoms: _245  and  _246
REMARK   97  A    between atoms: _251  and  _253
REMARK   98  A    between atoms: _253  and  _254
REMARK   99  A    between atoms: _253  and  _256
REMARK  100  A    between atoms: _256  and  _257
REMARK  101  A    between atoms: _260  and  _262
REMARK  102  A    between atoms: _262  and  _263
REMARK  103  A    between atoms: _262  and  _265
REMARK  104  A    between atoms: _265  and  _266
REMARK  105  A    between atoms: _269  and  _271
REMARK  106  A    between atoms: _271  and  _272
REMARK  107  A    between atoms: _271  and  _274
REMARK  108  A    between atoms: _274  and  _275
REMARK  109  A    between atoms: _280  and  _282
REMARK  110  A    between atoms: _282  and  _283
REMARK  111  A    between atoms: _282  and  _285
REMARK  112  A    between atoms: _285  and  _286
REMARK  113  A    between atoms: _289  and  _291
REMARK  114  A    between atoms: _291  and  _292
REMARK  115  A    between atoms: _291  and  _294
REMARK  116  A    between atoms: _294  and  _295
REMARK  117  A    between atoms: _300  and  _302
REMARK  118  A    between atoms: _302  and  _303
REMARK  119  A    between atoms: _302  and  _305
REMARK  120  A    between atoms: _305  and  _306
REMARK  121  A    between atoms: _311  and  _313
REMARK  122  A    between atoms: _313  and  _314
REMARK  123  A    between atoms: _313  and  _316
REMARK  124  A    between atoms: _316  and  _317
REMARK  125  A    between atoms: _320  and  _322
REMARK  126  A    between atoms: _322  and  _323
REMARK  127  A    between atoms: _322  and  _325
REMARK  128  A    between atoms: _328  and  _330
REMARK  129  A    between atoms: _330  and  _331
REMARK  130  A    between atoms: _330  and  _333
REMARK  131  A    between atoms: _333  and  _334
REMARK  132  A    between atoms: _337  and  _339
REMARK  133  A    between atoms: _339  and  _340
REMARK  134  A    between atoms: _339  and  _342
REMARK  135  A    between atoms: _342  and  _343
REMARK  136  A    between atoms: _343  and  _344
REMARK  137  A    between atoms: _347  and  _349
REMARK  138  A    between atoms: _349  and  _350
REMARK  139  A    between atoms: _353  and  _355
REMARK  140  A    between atoms: _355  and  _356
REMARK  141  A    between atoms: _355  and  _358
REMARK  142  A    between atoms: _358  and  _359
REMARK  143  A    between atoms: _362  and  _364
REMARK  144  A    between atoms: _364  and  _365
REMARK  145  A    between atoms: _364  and  _367
REMARK  146  A    between atoms: _367  and  _368
REMARK  147  A    between atoms: _368  and  _369
REMARK  148  A    between atoms: _372  and  _374
REMARK  149  A    between atoms: _374  and  _375
REMARK  150  A    between atoms: _374  and  _377
REMARK  151  A    between atoms: _377  and  _378
REMARK  152  A    between atoms: _383  and  _385
REMARK  153  A    between atoms: _385  and  _386
REMARK  154  A    between atoms: _388  and  _390
REMARK  155  A    between atoms: _390  and  _391
REMARK  156  A    between atoms: _390  and  _393
REMARK  157  A    between atoms: _396  and  _398
REMARK  158  A    between atoms: _398  and  _399
REMARK  159  A    between atoms: _402  and  _404
REMARK  160  A    between atoms: _404  and  _405
REMARK  161  A    between atoms: _404  and  _407
REMARK  162  A    between atoms: _407  and  _408
REMARK  163  A    between atoms: _413  and  _415
REMARK  164  A    between atoms: _415  and  _416
REMARK  165  A    between atoms: _415  and  _418
REMARK  166  A    between atoms: _418  and  _419
REMARK  167  A    between atoms: _419  and  _420
REMARK  168  A    between atoms: _420  and  _421
REMARK  169  A    between atoms: _421  and  _422
REMARK  170  A    between atoms: _426  and  _428
REMARK  171  A    between atoms: _428  and  _429
REMARK  172  A    between atoms: _428  and  _431
REMARK  173  A    between atoms: _431  and  _432
REMARK  174  A    between atoms: _435  and  _437
REMARK  175  A    between atoms: _437  and  _438
REMARK  176  A    between atoms: _437  and  _440
REMARK  177  A    between atoms: _440  and  _441
REMARK  178  A    between atoms: _446  and  _448
REMARK  179  A    between atoms: _448  and  _449
REMARK  180  A    between atoms: _451  and  _453
REMARK  181  A    between atoms: _453  and  _454
REMARK  182  A    between atoms: _453  and  _456
REMARK  183  A    between atoms: _456  and  _457
REMARK  184  A    between atoms: _457  and  _458
REMARK  185  A    between atoms: _458  and  _459
REMARK  186  A    between atoms: _459  and  _460
REMARK  187  A    between atoms: _464  and  _466
REMARK  188  A    between atoms: _466  and  _467
REMARK  189  A    between atoms: _466  and  _469
REMARK  190  A    between atoms: _469  and  _470
REMARK  191  A    between atoms: _470  and  _471
REMARK  192  A    between atoms: _471  and  _472
REMARK  193  A    between atoms: _481  and  _483
REMARK  194  A    between atoms: _483  and  _484
REMARK  195  A    between atoms: _483  and  _486
REMARK  196  A    between atoms: _486  and  _487
REMARK  197  A    between atoms: _492  and  _494
REMARK  198  A    between atoms: _494  and  _495
REMARK  199  A    between atoms: _494  and  _497
REMARK  200  A    between atoms: _497  and  _498
REMARK  201  A    between atoms: _503  and  _504
REMARK  202  A    between atoms: _506  and  _508
REMARK  203  A    between atoms: _508  and  _509
REMARK  204  A    between atoms: _508  and  _511
REMARK  205  A    between atoms: _511  and  _512
REMARK  206  A    between atoms: _512  and  _513
REMARK  207  A    between atoms: _513  and  _514
REMARK  208  A    between atoms: _514  and  _515
REMARK  209  A    between atoms: _519  and  _521
REMARK  210  A    between atoms: _521  and  _522
REMARK  211  A    between atoms: _521  and  _524
REMARK  212  A    between atoms: _524  and  _525
REMARK  213  A    between atoms: _527  and  _529
REMARK  214  A    between atoms: _529  and  _530
REMARK  215  A    between atoms: _529  and  _532
REMARK  216  A    between atoms: _532  and  _533
REMARK  217  A    between atoms: _536  and  _538
REMARK  218  A    between atoms: _538  and  _539
REMARK  219  A    between atoms: _538  and  _541
REMARK  220  A    between atoms: _541  and  _542
REMARK  221  A    between atoms: _542  and  _543
REMARK  222  A    between atoms: _546  and  _548
REMARK  223  A    between atoms: _548  and  _549
REMARK  224  A    between atoms: _552  and  _554
REMARK  225  A    between atoms: _554  and  _555
REMARK  226  A    between atoms: _554  and  _557
REMARK  227  A    between atoms: _557  and  _558
REMARK  228  A    between atoms: _560  and  _562
REMARK  229  A    between atoms: _562  and  _563
REMARK  230  A    between atoms: _565  and  _567
REMARK  231  A    between atoms: _567  and  _568
REMARK  232  A    between atoms: _567  and  _570
REMARK  233  A    between atoms: _570  and  _571
REMARK  234  A    between atoms: _574  and  _576
REMARK  235  A    between atoms: _576  and  _577
REMARK  236  A    between atoms: _579  and  _581
REMARK  237  A    between atoms: _581  and  _582
REMARK  238  A    between atoms: _581  and  _584
REMARK  239  A    between atoms: _584  and  _585
REMARK  240  A    between atoms: _590  and  _592
REMARK  241  A    between atoms: _592  and  _593
REMARK  242  A    between atoms: _592  and  _595
REMARK  243  A    between atoms: _595  and  _596
REMARK  244  A    between atoms: _596  and  _597
REMARK  245  A    between atoms: _604  and  _605
REMARK  246  A    between atoms: _605  and  _621
REMARK  247  A    between atoms: _606  and  _608
REMARK  248  A    between atoms: _608  and  _609
REMARK  249  A    between atoms: _609  and  _610
REMARK  250  A    between atoms: _614  and  _616
REMARK  251  A    between atoms: _616  and  _617
REMARK  252  A    between atoms: _616  and  _624
REMARK  253  A    between atoms: _617  and  _618
REMARK  254  A    between atoms: _618  and  _619
REMARK  255  A    between atoms: _619  and  _620
REMARK  256  A    between atoms: _620  and  _621
REMARK  257  A    between atoms: _626  and  _628
REMARK  258  A    between atoms: _628  and  _629
REMARK  259  A    between atoms: _628  and  _631
REMARK  260  A    between atoms: _631  and  _632
REMARK  261  A    between atoms: _635  and  _637
REMARK  262  A    between atoms: _637  and  _638
REMARK  263  A    between atoms: _640  and  _642
REMARK  264  A    between atoms: _642  and  _643
REMARK  265  A    between atoms: _646  and  _648
REMARK  266  A    between atoms: _648  and  _649
REMARK  267  A    between atoms: _648  and  _651
REMARK  268  A    between atoms: _651  and  _652
REMARK  269  A    between atoms: _657  and  _658
REMARK                            x       y       z     vdW  Elec       q    Type
REMARK                         _______ _______ _______ _____ _____    ______ ____
ROOT
ATOM      1  O   HOH     1      36.197  22.221  17.458  0.00  0.00    +0.000 OA
ENDROOT
TORSDOF 0
REMARK  Name = ../refined-set-2016/2qrp/2qrp_pocket.pdb
REMARK  269 active torsions:
REMARK  status: ('A' for Active; 'I' for Inactive)
REMARK    1  A    between atoms: _1  and  _3
REMARK    2  A    between atoms: _3  and  _4
REMARK    3  A    between atoms: _3  and  _6
REMARK    4  A    between atoms: _6  and  _7
REMARK    5  A    between atoms: _12  and  _13
REMARK    6  A    between atoms: _15  and  _17
REMARK    7  A    between atoms: _17  and  _18
REMARK    8  A    between atoms: _17  and  _20
REMARK    9  A    between atoms: _20  and  _21
REMARK   10  A    between atoms: _24  and  _26
REMARK   11  A    between atoms: _26  and  _27
REMARK   12  A    between atoms: _26  and  _29
REMARK   13  A    between atoms: _29  and  _30
REMARK   14  A    between atoms: _30  and  _31
REMARK   15  A    between atoms: _34  and  _36
REMARK   16  A    between atoms: _36  and  _37
REMARK   17  A    between atoms: _39  and  _41
REMARK   18  A    between atoms: _41  and  _42
REMARK   19  A    between atoms: _41  and  _44
REMARK   20  A    between atoms: _44  and  _45
REMARK   21  A    between atoms: _50  and  _52
REMARK   22  A    between atoms: _52  and  _53
REMARK   23  A    between atoms: _55  and  _57
REMARK   24  A    between atoms: _57  and  _58
REMARK   25  A    between atoms: _60  and  _62
REMARK   26  A    between atoms: _62  and  _63
REMARK   27  A    between atoms: _62  and  _65
REMARK   28  A    between atoms: _65  and  _66
REMARK   29  A    between atoms: _69  and  _71
REMARK   30  A    between atoms: _71  and  _72
REMARK   31  A    between atoms: _74  and  _76
REMARK   32  A    between atoms: _76  and  _77
REMARK   33  A    between atoms: _76  and  _79
REMARK   34  A    between atoms: _79  and  _80
REMARK   35  A    between atoms: _80  and  _81
REMARK   36  A    between atoms: _81  and  _82
REMARK   37  A    between atoms: _91  and  _93
REMARK   38  A    between atoms: _93  and  _94
REMARK   39  A    between atoms: _93  and  _96
REMARK   40  A    between atoms: _96  and  _97
REMARK   41  A    between atoms: _100  and  _102
REMARK   42  A    between atoms: _102  and  _103
REMARK   43  A    between atoms: _106  and  _108
REMARK   44  A    between atoms: _108  and  _109
REMARK   45  A    between atoms: _108  and  _111
REMARK   46  A    between atoms: _111  and  _112
REMARK   47  A    between atoms: _118  and  _120
REMARK   48  A    between atoms: _120  and  _121
REMARK   49  A    between atoms: _120  and  _123
REMARK   50  A    between atoms: _123  and  _124
REMARK   51  A    between atoms: _127  and  _129
REMARK   52  A    between atoms: _129  and  _130
REMARK   53  A    between atoms: _129  and  _132
REMARK   54  A    between atoms: _132  and  _133
REMARK   55  A    between atoms: _138  and  _139
REMARK   56  A    between atoms: _142  and  _143
REMARK   57  A    between atoms: _148  and  _150
REMARK   58  A    between atoms: _150  and  _151
REMARK   59  A    between atoms: _150  and  _153
REMARK   60  A    between atoms: _153  and  _154
REMARK   61  A    between atoms: _159  and  _161
REMARK   62  A    between atoms: _161  and  _162
REMARK   63  A    between atoms: _161  and  _164
REMARK   64  A    between atoms: _164  and  _165
REMARK   65  A    between atoms: _168  and  _170
REMARK   66  A    between atoms: _170  and  _171
REMARK   67  A    between atoms: _170  and  _173
REMARK   68  A    between atoms: _173  and  _174
REMARK   69  A    between atoms: _179  and  _181
REMARK   70  A    between atoms: _181  and  _182
REMARK   71  A    between atoms: _181  and  _184
REMARK   72  A    between atoms: _184  and  _185
REMARK   73  A    between atoms: _191  and  _193
REMARK   74  A    between atoms: _193  and  _194
REMARK   75  A    between atoms: _193  and  _196
REMARK   76  A    between atoms: _196  and  _197
REMARK   77  A    between atoms: _203  and  _205
REMARK   78  A    between atoms: _205  and  _206
REMARK   79  A    between atoms: _205  and  _208
REMARK   80  A    between atoms: _208  and  _209
REMARK   81  A    between atoms: _209  and  _210
REMARK   82  A    between atoms: _213  and  _215
REMARK   83  A    between atoms: _215  and  _216
REMARK   84  A    between atoms: _215  and  _218
REMARK   85  A    between atoms: _218  and  _219
REMARK   86  A    between atoms: _219  and  _220
REMARK   87  A    between atoms: _220  and  _221
REMARK   88  A    between atoms: _230  and  _232
REMARK   89  A    between atoms: _232  and  _233
REMARK   90  A    between atoms: _232  and  _235
REMARK   91  A    between atoms: _235  and  _236
REMARK   92  A    between atoms: _236  and  _237
REMARK   93  A    between atoms: _240  and  _242
REMARK   94  A    between atoms: _242  and  _243
REMARK   95  A    between atoms: _242  and  _245
REMARK   96  A    between atoms: _245  and  _246
REMARK   97  A    between atoms: _251  and  _253
REMARK   98  A    between atoms: _253  and  _254
REMARK   99  A    between atoms: _253  and  _256
REMARK  100  A    between atoms: _256  and  _257
REMARK  101  A    between atoms: _260  and  _262
REMARK  102  A    between atoms: _262  and  _263
REMARK  103  A    between atoms: _262  and  _265
REMARK  104  A    between atoms: _265  and  _266
REMARK  105  A    between atoms: _269  and  _271
REMARK  106  A    between atoms: _271  and  _272
REMARK  107  A    between atoms: _271  and  _274
REMARK  108  A    between atoms: _274  and  _275
REMARK  109  A    between atoms: _280  and  _282
REMARK  110  A    between atoms: _282  and  _283
REMARK  111  A    between atoms: _282  and  _285
REMARK  112  A    between atoms: _285  and  _286
REMARK  113  A    between atoms: _289  and  _291
REMARK  114  A    between atoms: _291  and  _292
REMARK  115  A    between atoms: _291  and  _294
REMARK  116  A    between atoms: _294  and  _295
REMARK  117  A    between atoms: _300  and  _302
REMARK  118  A    between atoms: _302  and  _303
REMARK  119  A    between atoms: _302  and  _305
REMARK  120  A    between atoms: _305  and  _306
REMARK  121  A    between atoms: _311  and  _313
REMARK  122  A    between atoms: _313  and  _314
REMARK  123  A    between atoms: _313  and  _316
REMARK  124  A    between atoms: _316  and  _317
REMARK  125  A    between atoms: _320  and  _322
REMARK  126  A    between atoms: _322  and  _323
REMARK  127  A    between atoms: _322  and  _325
REMARK  128  A    between atoms: _328  and  _330
REMARK  129  A    between atoms: _330  and  _331
REMARK  130  A    between atoms: _330  and  _333
REMARK  131  A    between atoms: _333  and  _334
REMARK  132  A    between atoms: _337  and  _339
REMARK  133  A    between atoms: _339  and  _340
REMARK  134  A    between atoms: _339  and  _342
REMARK  135  A    between atoms: _342  and  _343
REMARK  136  A    between atoms: _343  and  _344
REMARK  137  A    between atoms: _347  and  _349
REMARK  138  A    between atoms: _349  and  _350
REMARK  139  A    between atoms: _353  and  _355
REMARK  140  A    between atoms: _355  and  _356
REMARK  141  A    between atoms: _355  and  _358
REMARK  142  A    between atoms: _358  and  _359
REMARK  143  A    between atoms: _362  and  _364
REMARK  144  A    between atoms: _364  and  _365
REMARK  145  A    between atoms: _364  and  _367
REMARK  146  A    between atoms: _367  and  _368
REMARK  147  A    between atoms: _368  and  _369
REMARK  148  A    between atoms: _372  and  _374
REMARK  149  A    between atoms: _374  and  _375
REMARK  150  A    between atoms: _374  and  _377
REMARK  151  A    between atoms: _377  and  _378
REMARK  152  A    between atoms: _383  and  _385
REMARK  153  A    between atoms: _385  and  _386
REMARK  154  A    between atoms: _388  and  _390
REMARK  155  A    between atoms: _390  and  _391
REMARK  156  A    between atoms: _390  and  _393
REMARK  157  A    between atoms: _396  and  _398
REMARK  158  A    between atoms: _398  and  _399
REMARK  159  A    between atoms: _402  and  _404
REMARK  160  A    between atoms: _404  and  _405
REMARK  161  A    between atoms: _404  and  _407
REMARK  162  A    between atoms: _407  and  _408
REMARK  163  A    between atoms: _413  and  _415
REMARK  164  A    between atoms: _415  and  _416
REMARK  165  A    between atoms: _415  and  _418
REMARK  166  A    between atoms: _418  and  _419
REMARK  167  A    between atoms: _419  and  _420
REMARK  168  A    between atoms: _420  and  _421
REMARK  169  A    between atoms: _421  and  _422
REMARK  170  A    between atoms: _426  and  _428
REMARK  171  A    between atoms: _428  and  _429
REMARK  172  A    between atoms: _428  and  _431
REMARK  173  A    between atoms: _431  and  _432
REMARK  174  A    between atoms: _435  and  _437
REMARK  175  A    between atoms: _437  and  _438
REMARK  176  A    between atoms: _437  and  _440
REMARK  177  A    between atoms: _440  and  _441
REMARK  178  A    between atoms: _446  and  _448
REMARK  179  A    between atoms: _448  and  _449
REMARK  180  A    between atoms: _451  and  _453
REMARK  181  A    between atoms: _453  and  _454
REMARK  182  A    between atoms: _453  and  _456
REMARK  183  A    between atoms: _456  and  _457
REMARK  184  A    between atoms: _457  and  _458
REMARK  185  A    between atoms: _458  and  _459
REMARK  186  A    between atoms: _459  and  _460
REMARK  187  A    between atoms: _464  and  _466
REMARK  188  A    between atoms: _466  and  _467
REMARK  189  A    between atoms: _466  and  _469
REMARK  190  A    between atoms: _469  and  _470
REMARK  191  A    between atoms: _470  and  _471
REMARK  192  A    between atoms: _471  and  _472
REMARK  193  A    between atoms: _481  and  _483
REMARK  194  A    between atoms: _483  and  _484
REMARK  195  A    between atoms: _483  and  _486
REMARK  196  A    between atoms: _486  and  _487
REMARK  197  A    between atoms: _492  and  _494
REMARK  198  A    between atoms: _494  and  _495
REMARK  199  A    between atoms: _494  and  _497
REMARK  200  A    between atoms: _497  and  _498
REMARK  201  A    between atoms: _503  and  _504
REMARK  202  A    between atoms: _506  and  _508
REMARK  203  A    between atoms: _508  and  _509
REMARK  204  A    between atoms: _508  and  _511
REMARK  205  A    between atoms: _511  and  _512
REMARK  206  A    between atoms: _512  and  _513
REMARK  207  A    between atoms: _513  and  _514
REMARK  208  A    between atoms: _514  and  _515
REMARK  209  A    between atoms: _519  and  _521
REMARK  210  A    between atoms: _521  and  _522
REMARK  211  A    between atoms: _521  and  _524
REMARK  212  A    between atoms: _524  and  _525
REMARK  213  A    between atoms: _527  and  _529
REMARK  214  A    between atoms: _529  and  _530
REMARK  215  A    between atoms: _529  and  _532
REMARK  216  A    between atoms: _532  and  _533
REMARK  217  A    between atoms: _536  and  _538
REMARK  218  A    between atoms: _538  and  _539
REMARK  219  A    between atoms: _538  and  _541
REMARK  220  A    between atoms: _541  and  _542
REMARK  221  A    between atoms: _542  and  _543
REMARK  222  A    between atoms: _546  and  _548
REMARK  223  A    between atoms: _548  and  _549
REMARK  224  A    between atoms: _552  and  _554
REMARK  225  A    between atoms: _554  and  _555
REMARK  226  A    between atoms: _554  and  _557
REMARK  227  A    between atoms: _557  and  _558
REMARK  228  A    between atoms: _560  and  _562
REMARK  229  A    between atoms: _562  and  _563
REMARK  230  A    between atoms: _565  and  _567
REMARK  231  A    between atoms: _567  and  _568
REMARK  232  A    between atoms: _567  and  _570
REMARK  233  A    between atoms: _570  and  _571
REMARK  234  A    between atoms: _574  and  _576
REMARK  235  A    between atoms: _576  and  _577
REMARK  236  A    between atoms: _579  and  _581
REMARK  237  A    between atoms: _581  and  _582
REMARK  238  A    between atoms: _581  and  _584
REMARK  239  A    between atoms: _584  and  _585
REMARK  240  A    between atoms: _590  and  _592
REMARK  241  A    between atoms: _592  and  _593
REMARK  242  A    between atoms: _592  and  _595
REMARK  243  A    between atoms: _595  and  _596
REMARK  244  A    between atoms: _596  and  _597
REMARK  245  A    between atoms: _604  and  _605
REMARK  246  A    between atoms: _605  and  _621
REMARK  247  A    between atoms: _606  and  _608
REMARK  248  A    between atoms: _608  and  _609
REMARK  249  A    between atoms: _609  and  _610
REMARK  250  A    between atoms: _614  and  _616
REMARK  251  A    between atoms: _616  and  _617
REMARK  252  A    between atoms: _616  and  _624
REMARK  253  A    between atoms: _617  and  _618
REMARK  254  A    between atoms: _618  and  _619
REMARK  255  A    between atoms: _619  and  _620
REMARK  256  A    between atoms: _620  and  _621
REMARK  257  A    between atoms: _626  and  _628
REMARK  258  A    between atoms: _628  and  _629
REMARK  259  A    between atoms: _628  and  _631
REMARK  260  A    between atoms: _631  and  _632
REMARK  261  A    between atoms: _635  and  _637
REMARK  262  A    between atoms: _637  and  _638
REMARK  263  A    between atoms: _640  and  _642
REMARK  264  A    between atoms: _642  and  _643
REMARK  265  A    between atoms: _646  and  _648
REMARK  266  A    between atoms: _648  and  _649
REMARK  267  A    between atoms: _648  and  _651
REMARK  268  A    between atoms: _651  and  _652
REMARK  269  A    between atoms: _657  and  _658
REMARK                            x       y       z     vdW  Elec       q    Type
REMARK                         _______ _______ _______ _____ _____    ______ ____
ROOT
ATOM      1  O   HOH     1      43.993  22.327  31.636  0.00  0.00    +0.000 OA
ENDROOT
TORSDOF 0
REMARK  Name = ../refined-set-2016/2qrp/2qrp_pocket.pdb
REMARK  269 active torsions:
REMARK  status: ('A' for Active; 'I' for Inactive)
REMARK    1  A    between atoms: _1  and  _3
REMARK    2  A    between atoms: _3  and  _4
REMARK    3  A    between atoms: _3  and  _6
REMARK    4  A    between atoms: _6  and  _7
REMARK    5  A    between atoms: _12  and  _13
REMARK    6  A    between atoms: _15  and  _17
REMARK    7  A    between atoms: _17  and  _18
REMARK    8  A    between atoms: _17  and  _20
REMARK    9  A    between atoms: _20  and  _21
REMARK   10  A    between atoms: _24  and  _26
REMARK   11  A    between atoms: _26  and  _27
REMARK   12  A    between atoms: _26  and  _29
REMARK   13  A    between atoms: _29  and  _30
REMARK   14  A    between atoms: _30  and  _31
REMARK   15  A    between atoms: _34  and  _36
REMARK   16  A    between atoms: _36  and  _37
REMARK   17  A    between atoms: _39  and  _41
REMARK   18  A    between atoms: _41  and  _42
REMARK   19  A    between atoms: _41  and  _44
REMARK   20  A    between atoms: _44  and  _45
REMARK   21  A    between atoms: _50  and  _52
REMARK   22  A    between atoms: _52  and  _53
REMARK   23  A    between atoms: _55  and  _57
REMARK   24  A    between atoms: _57  and  _58
REMARK   25  A    between atoms: _60  and  _62
REMARK   26  A    between atoms: _62  and  _63
REMARK   27  A    between atoms: _62  and  _65
REMARK   28  A    between atoms: _65  and  _66
REMARK   29  A    between atoms: _69  and  _71
REMARK   30  A    between atoms: _71  and  _72
REMARK   31  A    between atoms: _74  and  _76
REMARK   32  A    between atoms: _76  and  _77
REMARK   33  A    between atoms: _76  and  _79
REMARK   34  A    between atoms: _79  and  _80
REMARK   35  A    between atoms: _80  and  _81
REMARK   36  A    between atoms: _81  and  _82
REMARK   37  A    between atoms: _91  and  _93
REMARK   38  A    between atoms: _93  and  _94
REMARK   39  A    between atoms: _93  and  _96
REMARK   40  A    between atoms: _96  and  _97
REMARK   41  A    between atoms: _100  and  _102
REMARK   42  A    between atoms: _102  and  _103
REMARK   43  A    between atoms: _106  and  _108
REMARK   44  A    between atoms: _108  and  _109
REMARK   45  A    between atoms: _108  and  _111
REMARK   46  A    between atoms: _111  and  _112
REMARK   47  A    between atoms: _118  and  _120
REMARK   48  A    between atoms: _120  and  _121
REMARK   49  A    between atoms: _120  and  _123
REMARK   50  A    between atoms: _123  and  _124
REMARK   51  A    between atoms: _127  and  _129
REMARK   52  A    between atoms: _129  and  _130
REMARK   53  A    between atoms: _129  and  _132
REMARK   54  A    between atoms: _132  and  _133
REMARK   55  A    between atoms: _138  and  _139
REMARK   56  A    between atoms: _142  and  _143
REMARK   57  A    between atoms: _148  and  _150
REMARK   58  A    between atoms: _150  and  _151
REMARK   59  A    between atoms: _150  and  _153
REMARK   60  A    between atoms: _153  and  _154
REMARK   61  A    between atoms: _159  and  _161
REMARK   62  A    between atoms: _161  and  _162
REMARK   63  A    between atoms: _161  and  _164
REMARK   64  A    between atoms: _164  and  _165
REMARK   65  A    between atoms: _168  and  _170
REMARK   66  A    between atoms: _170  and  _171
REMARK   67  A    between atoms: _170  and  _173
REMARK   68  A    between atoms: _173  and  _174
REMARK   69  A    between atoms: _179  and  _181
REMARK   70  A    between atoms: _181  and  _182
REMARK   71  A    between atoms: _181  and  _184
REMARK   72  A    between atoms: _184  and  _185
REMARK   73  A    between atoms: _191  and  _193
REMARK   74  A    between atoms: _193  and  _194
REMARK   75  A    between atoms: _193  and  _196
REMARK   76  A    between atoms: _196  and  _197
REMARK   77  A    between atoms: _203  and  _205
REMARK   78  A    between atoms: _205  and  _206
REMARK   79  A    between atoms: _205  and  _208
REMARK   80  A    between atoms: _208  and  _209
REMARK   81  A    between atoms: _209  and  _210
REMARK   82  A    between atoms: _213  and  _215
REMARK   83  A    between atoms: _215  and  _216
REMARK   84  A    between atoms: _215  and  _218
REMARK   85  A    between atoms: _218  and  _219
REMARK   86  A    between atoms: _219  and  _220
REMARK   87  A    between atoms: _220  and  _221
REMARK   88  A    between atoms: _230  and  _232
REMARK   89  A    between atoms: _232  and  _233
REMARK   90  A    between atoms: _232  and  _235
REMARK   91  A    between atoms: _235  and  _236
REMARK   92  A    between atoms: _236  and  _237
REMARK   93  A    between atoms: _240  and  _242
REMARK   94  A    between atoms: _242  and  _243
REMARK   95  A    between atoms: _242  and  _245
REMARK   96  A    between atoms: _245  and  _246
REMARK   97  A    between atoms: _251  and  _253
REMARK   98  A    between atoms: _253  and  _254
REMARK   99  A    between atoms: _253  and  _256
REMARK  100  A    between atoms: _256  and  _257
REMARK  101  A    between atoms: _260  and  _262
REMARK  102  A    between atoms: _262  and  _263
REMARK  103  A    between atoms: _262  and  _265
REMARK  104  A    between atoms: _265  and  _266
REMARK  105  A    between atoms: _269  and  _271
REMARK  106  A    between atoms: _271  and  _272
REMARK  107  A    between atoms: _271  and  _274
REMARK  108  A    between atoms: _274  and  _275
REMARK  109  A    between atoms: _280  and  _282
REMARK  110  A    between atoms: _282  and  _283
REMARK  111  A    between atoms: _282  and  _285
REMARK  112  A    between atoms: _285  and  _286
REMARK  113  A    between atoms: _289  and  _291
REMARK  114  A    between atoms: _291  and  _292
REMARK  115  A    between atoms: _291  and  _294
REMARK  116  A    between atoms: _294  and  _295
REMARK  117  A    between atoms: _300  and  _302
REMARK  118  A    between atoms: _302  and  _303
REMARK  119  A    between atoms: _302  and  _305
REMARK  120  A    between atoms: _305  and  _306
REMARK  121  A    between atoms: _311  and  _313
REMARK  122  A    between atoms: _313  and  _314
REMARK  123  A    between atoms: _313  and  _316
REMARK  124  A    between atoms: _316  and  _317
REMARK  125  A    between atoms: _320  and  _322
REMARK  126  A    between atoms: _322  and  _323
REMARK  127  A    between atoms: _322  and  _325
REMARK  128  A    between atoms: _328  and  _330
REMARK  129  A    between atoms: _330  and  _331
REMARK  130  A    between atoms: _330  and  _333
REMARK  131  A    between atoms: _333  and  _334
REMARK  132  A    between atoms: _337  and  _339
REMARK  133  A    between atoms: _339  and  _340
REMARK  134  A    between atoms: _339  and  _342
REMARK  135  A    between atoms: _342  and  _343
REMARK  136  A    between atoms: _343  and  _344
REMARK  137  A    between atoms: _347  and  _349
REMARK  138  A    between atoms: _349  and  _350
REMARK  139  A    between atoms: _353  and  _355
REMARK  140  A    between atoms: _355  and  _356
REMARK  141  A    between atoms: _355  and  _358
REMARK  142  A    between atoms: _358  and  _359
REMARK  143  A    between atoms: _362  and  _364
REMARK  144  A    between atoms: _364  and  _365
REMARK  145  A    between atoms: _364  and  _367
REMARK  146  A    between atoms: _367  and  _368
REMARK  147  A    between atoms: _368  and  _369
REMARK  148  A    between atoms: _372  and  _374
REMARK  149  A    between atoms: _374  and  _375
REMARK  150  A    between atoms: _374  and  _377
REMARK  151  A    between atoms: _377  and  _378
REMARK  152  A    between atoms: _383  and  _385
REMARK  153  A    between atoms: _385  and  _386
REMARK  154  A    between atoms: _388  and  _390
REMARK  155  A    between atoms: _390  and  _391
REMARK  156  A    between atoms: _390  and  _393
REMARK  157  A    between atoms: _396  and  _398
REMARK  158  A    between atoms: _398  and  _399
REMARK  159  A    between atoms: _402  and  _404
REMARK  160  A    between atoms: _404  and  _405
REMARK  161  A    between atoms: _404  and  _407
REMARK  162  A    between atoms: _407  and  _408
REMARK  163  A    between atoms: _413  and  _415
REMARK  164  A    between atoms: _415  and  _416
REMARK  165  A    between atoms: _415  and  _418
REMARK  166  A    between atoms: _418  and  _419
REMARK  167  A    between atoms: _419  and  _420
REMARK  168  A    between atoms: _420  and  _421
REMARK  169  A    between atoms: _421  and  _422
REMARK  170  A    between atoms: _426  and  _428
REMARK  171  A    between atoms: _428  and  _429
REMARK  172  A    between atoms: _428  and  _431
REMARK  173  A    between atoms: _431  and  _432
REMARK  174  A    between atoms: _435  and  _437
REMARK  175  A    between atoms: _437  and  _438
REMARK  176  A    between atoms: _437  and  _440
REMARK  177  A    between atoms: _440  and  _441
REMARK  178  A    between atoms: _446  and  _448
REMARK  179  A    between atoms: _448  and  _449
REMARK  180  A    between atoms: _451  and  _453
REMARK  181  A    between atoms: _453  and  _454
REMARK  182  A    between atoms: _453  and  _456
REMARK  183  A    between atoms: _456  and  _457
REMARK  184  A    between atoms: _457  and  _458
REMARK  185  A    between atoms: _458  and  _459
REMARK  186  A    between atoms: _459  and  _460
REMARK  187  A    between atoms: _464  and  _466
REMARK  188  A    between atoms: _466  and  _467
REMARK  189  A    between atoms: _466  and  _469
REMARK  190  A    between atoms: _469  and  _470
REMARK  191  A    between atoms: _470  and  _471
REMARK  192  A    between atoms: _471  and  _472
REMARK  193  A    between atoms: _481  and  _483
REMARK  194  A    between atoms: _483  and  _484
REMARK  195  A    between atoms: _483  and  _486
REMARK  196  A    between atoms: _486  and  _487
REMARK  197  A    between atoms: _492  and  _494
REMARK  198  A    between atoms: _494  and  _495
REMARK  199  A    between atoms: _494  and  _497
REMARK  200  A    between atoms: _497  and  _498
REMARK  201  A    between atoms: _503  and  _504
REMARK  202  A    between atoms: _506  and  _508
REMARK  203  A    between atoms: _508  and  _509
REMARK  204  A    between atoms: _508  and  _511
REMARK  205  A    between atoms: _511  and  _512
REMARK  206  A    between atoms: _512  and  _513
REMARK  207  A    between atoms: _513  and  _514
REMARK  208  A    between atoms: _514  and  _515
REMARK  209  A    between atoms: _519  and  _521
REMARK  210  A    between atoms: _521  and  _522
REMARK  211  A    between atoms: _521  and  _524
REMARK  212  A    between atoms: _524  and  _525
REMARK  213  A    between atoms: _527  and  _529
REMARK  214  A    between atoms: _529  and  _530
REMARK  215  A    between atoms: _529  and  _532
REMARK  216  A    between atoms: _532  and  _533
REMARK  217  A    between atoms: _536  and  _538
REMARK  218  A    between atoms: _538  and  _539
REMARK  219  A    between atoms: _538  and  _541
REMARK  220  A    between atoms: _541  and  _542
REMARK  221  A    between atoms: _542  and  _543
REMARK  222  A    between atoms: _546  and  _548
REMARK  223  A    between atoms: _548  and  _549
REMARK  224  A    between atoms: _552  and  _554
REMARK  225  A    between atoms: _554  and  _555
REMARK  226  A    between atoms: _554  and  _557
REMARK  227  A    between atoms: _557  and  _558
REMARK  228  A    between atoms: _560  and  _562
REMARK  229  A    between atoms: _562  and  _563
REMARK  230  A    between atoms: _565  and  _567
REMARK  231  A    between atoms: _567  and  _568
REMARK  232  A    between atoms: _567  and  _570
REMARK  233  A    between atoms: _570  and  _571
REMARK  234  A    between atoms: _574  and  _576
REMARK  235  A    between atoms: _576  and  _577
REMARK  236  A    between atoms: _579  and  _581
REMARK  237  A    between atoms: _581  and  _582
REMARK  238  A    between atoms: _581  and  _584
REMARK  239  A    between atoms: _584  and  _585
REMARK  240  A    between atoms: _590  and  _592
REMARK  241  A    between atoms: _592  and  _593
REMARK  242  A    between atoms: _592  and  _595
REMARK  243  A    between atoms: _595  and  _596
REMARK  244  A    between atoms: _596  and  _597
REMARK  245  A    between atoms: _604  and  _605
REMARK  246  A    between atoms: _605  and  _621
REMARK  247  A    between atoms: _606  and  _608
REMARK  248  A    between atoms: _608  and  _609
REMARK  249  A    between atoms: _609  and  _610
REMARK  250  A    between atoms: _614  and  _616
REMARK  251  A    between atoms: _616  and  _617
REMARK  252  A    between atoms: _616  and  _624
REMARK  253  A    between atoms: _617  and  _618
REMARK  254  A    between atoms: _618  and  _619
REMARK  255  A    between atoms: _619  and  _620
REMARK  256  A    between atoms: _620  and  _621
REMARK  257  A    between atoms: _626  and  _628
REMARK  258  A    between atoms: _628  and  _629
REMARK  259  A    between atoms: _628  and  _631
REMARK  260  A    between atoms: _631  and  _632
REMARK  261  A    between atoms: _635  and  _637
REMARK  262  A    between atoms: _637  and  _638
REMARK  263  A    between atoms: _640  and  _642
REMARK  264  A    between atoms: _642  and  _643
REMARK  265  A    between atoms: _646  and  _648
REMARK  266  A    between atoms: _648  and  _649
REMARK  267  A    between atoms: _648  and  _651
REMARK  268  A    between atoms: _651  and  _652
REMARK  269  A    between atoms: _657  and  _658
REMARK                            x       y       z     vdW  Elec       q    Type
REMARK                         _______ _______ _______ _____ _____    ______ ____
ROOT
ATOM      1  O   HOH     1      25.657  16.451  28.190  0.00  0.00    +0.000 OA
ENDROOT
TORSDOF 0
REMARK  Name = ../refined-set-2016/2qrp/2qrp_pocket.pdb
REMARK  269 active torsions:
REMARK  status: ('A' for Active; 'I' for Inactive)
REMARK    1  A    between atoms: _1  and  _3
REMARK    2  A    between atoms: _3  and  _4
REMARK    3  A    between atoms: _3  and  _6
REMARK    4  A    between atoms: _6  and  _7
REMARK    5  A    between atoms: _12  and  _13
REMARK    6  A    between atoms: _15  and  _17
REMARK    7  A    between atoms: _17  and  _18
REMARK    8  A    between atoms: _17  and  _20
REMARK    9  A    between atoms: _20  and  _21
REMARK   10  A    between atoms: _24  and  _26
REMARK   11  A    between atoms: _26  and  _27
REMARK   12  A    between atoms: _26  and  _29
REMARK   13  A    between atoms: _29  and  _30
REMARK   14  A    between atoms: _30  and  _31
REMARK   15  A    between atoms: _34  and  _36
REMARK   16  A    between atoms: _36  and  _37
REMARK   17  A    between atoms: _39  and  _41
REMARK   18  A    between atoms: _41  and  _42
REMARK   19  A    between atoms: _41  and  _44
REMARK   20  A    between atoms: _44  and  _45
REMARK   21  A    between atoms: _50  and  _52
REMARK   22  A    between atoms: _52  and  _53
REMARK   23  A    between atoms: _55  and  _57
REMARK   24  A    between atoms: _57  and  _58
REMARK   25  A    between atoms: _60  and  _62
REMARK   26  A    between atoms: _62  and  _63
REMARK   27  A    between atoms: _62  and  _65
REMARK   28  A    between atoms: _65  and  _66
REMARK   29  A    between atoms: _69  and  _71
REMARK   30  A    between atoms: _71  and  _72
REMARK   31  A    between atoms: _74  and  _76
REMARK   32  A    between atoms: _76  and  _77
REMARK   33  A    between atoms: _76  and  _79
REMARK   34  A    between atoms: _79  and  _80
REMARK   35  A    between atoms: _80  and  _81
REMARK   36  A    between atoms: _81  and  _82
REMARK   37  A    between atoms: _91  and  _93
REMARK   38  A    between atoms: _93  and  _94
REMARK   39  A    between atoms: _93  and  _96
REMARK   40  A    between atoms: _96  and  _97
REMARK   41  A    between atoms: _100  and  _102
REMARK   42  A    between atoms: _102  and  _103
REMARK   43  A    between atoms: _106  and  _108
REMARK   44  A    between atoms: _108  and  _109
REMARK   45  A    between atoms: _108  and  _111
REMARK   46  A    between atoms: _111  and  _112
REMARK   47  A    between atoms: _118  and  _120
REMARK   48  A    between atoms: _120  and  _121
REMARK   49  A    between atoms: _120  and  _123
REMARK   50  A    between atoms: _123  and  _124
REMARK   51  A    between atoms: _127  and  _129
REMARK   52  A    between atoms: _129  and  _130
REMARK   53  A    between atoms: _129  and  _132
REMARK   54  A    between atoms: _132  and  _133
REMARK   55  A    between atoms: _138  and  _139
REMARK   56  A    between atoms: _142  and  _143
REMARK   57  A    between atoms: _148  and  _150
REMARK   58  A    between atoms: _150  and  _151
REMARK   59  A    between atoms: _150  and  _153
REMARK   60  A    between atoms: _153  and  _154
REMARK   61  A    between atoms: _159  and  _161
REMARK   62  A    between atoms: _161  and  _162
REMARK   63  A    between atoms: _161  and  _164
REMARK   64  A    between atoms: _164  and  _165
REMARK   65  A    between atoms: _168  and  _170
REMARK   66  A    between atoms: _170  and  _171
REMARK   67  A    between atoms: _170  and  _173
REMARK   68  A    between atoms: _173  and  _174
REMARK   69  A    between atoms: _179  and  _181
REMARK   70  A    between atoms: _181  and  _182
REMARK   71  A    between atoms: _181  and  _184
REMARK   72  A    between atoms: _184  and  _185
REMARK   73  A    between atoms: _191  and  _193
REMARK   74  A    between atoms: _193  and  _194
REMARK   75  A    between atoms: _193  and  _196
REMARK   76  A    between atoms: _196  and  _197
REMARK   77  A    between atoms: _203  and  _205
REMARK   78  A    between atoms: _205  and  _206
REMARK   79  A    between atoms: _205  and  _208
REMARK   80  A    between atoms: _208  and  _209
REMARK   81  A    between atoms: _209  and  _210
REMARK   82  A    between atoms: _213  and  _215
REMARK   83  A    between atoms: _215  and  _216
REMARK   84  A    between atoms: _215  and  _218
REMARK   85  A    between atoms: _218  and  _219
REMARK   86  A    between atoms: _219  and  _220
REMARK   87  A    between atoms: _220  and  _221
REMARK   88  A    between atoms: _230  and  _232
REMARK   89  A    between atoms: _232  and  _233
REMARK   90  A    between atoms: _232  and  _235
REMARK   91  A    between atoms: _235  and  _236
REMARK   92  A    between atoms: _236  and  _237
REMARK   93  A    between atoms: _240  and  _242
REMARK   94  A    between atoms: _242  and  _243
REMARK   95  A    between atoms: _242  and  _245
REMARK   96  A    between atoms: _245  and  _246
REMARK   97  A    between atoms: _251  and  _253
REMARK   98  A    between atoms: _253  and  _254
REMARK   99  A    between atoms: _253  and  _256
REMARK  100  A    between atoms: _256  and  _257
REMARK  101  A    between atoms: _260  and  _262
REMARK  102  A    between atoms: _262  and  _263
REMARK  103  A    between atoms: _262  and  _265
REMARK  104  A    between atoms: _265  and  _266
REMARK  105  A    between atoms: _269  and  _271
REMARK  106  A    between atoms: _271  and  _272
REMARK  107  A    between atoms: _271  and  _274
REMARK  108  A    between atoms: _274  and  _275
REMARK  109  A    between atoms: _280  and  _282
REMARK  110  A    between atoms: _282  and  _283
REMARK  111  A    between atoms: _282  and  _285
REMARK  112  A    between atoms: _285  and  _286
REMARK  113  A    between atoms: _289  and  _291
REMARK  114  A    between atoms: _291  and  _292
REMARK  115  A    between atoms: _291  and  _294
REMARK  116  A    between atoms: _294  and  _295
REMARK  117  A    between atoms: _300  and  _302
REMARK  118  A    between atoms: _302  and  _303
REMARK  119  A    between atoms: _302  and  _305
REMARK  120  A    between atoms: _305  and  _306
REMARK  121  A    between atoms: _311  and  _313
REMARK  122  A    between atoms: _313  and  _314
REMARK  123  A    between atoms: _313  and  _316
REMARK  124  A    between atoms: _316  and  _317
REMARK  125  A    between atoms: _320  and  _322
REMARK  126  A    between atoms: _322  and  _323
REMARK  127  A    between atoms: _322  and  _325
REMARK  128  A    between atoms: _328  and  _330
REMARK  129  A    between atoms: _330  and  _331
REMARK  130  A    between atoms: _330  and  _333
REMARK  131  A    between atoms: _333  and  _334
REMARK  132  A    between atoms: _337  and  _339
REMARK  133  A    between atoms: _339  and  _340
REMARK  134  A    between atoms: _339  and  _342
REMARK  135  A    between atoms: _342  and  _343
REMARK  136  A    between atoms: _343  and  _344
REMARK  137  A    between atoms: _347  and  _349
REMARK  138  A    between atoms: _349  and  _350
REMARK  139  A    between atoms: _353  and  _355
REMARK  140  A    between atoms: _355  and  _356
REMARK  141  A    between atoms: _355  and  _358
REMARK  142  A    between atoms: _358  and  _359
REMARK  143  A    between atoms: _362  and  _364
REMARK  144  A    between atoms: _364  and  _365
REMARK  145  A    between atoms: _364  and  _367
REMARK  146  A    between atoms: _367  and  _368
REMARK  147  A    between atoms: _368  and  _369
REMARK  148  A    between atoms: _372  and  _374
REMARK  149  A    between atoms: _374  and  _375
REMARK  150  A    between atoms: _374  and  _377
REMARK  151  A    between atoms: _377  and  _378
REMARK  152  A    between atoms: _383  and  _385
REMARK  153  A    between atoms: _385  and  _386
REMARK  154  A    between atoms: _388  and  _390
REMARK  155  A    between atoms: _390  and  _391
REMARK  156  A    between atoms: _390  and  _393
REMARK  157  A    between atoms: _396  and  _398
REMARK  158  A    between atoms: _398  and  _399
REMARK  159  A    between atoms: _402  and  _404
REMARK  160  A    between atoms: _404  and  _405
REMARK  161  A    between atoms: _404  and  _407
REMARK  162  A    between atoms: _407  and  _408
REMARK  163  A    between atoms: _413  and  _415
REMARK  164  A    between atoms: _415  and  _416
REMARK  165  A    between atoms: _415  and  _418
REMARK  166  A    between atoms: _418  and  _419
REMARK  167  A    between atoms: _419  and  _420
REMARK  168  A    between atoms: _420  and  _421
REMARK  169  A    between atoms: _421  and  _422
REMARK  170  A    between atoms: _426  and  _428
REMARK  171  A    between atoms: _428  and  _429
REMARK  172  A    between atoms: _428  and  _431
REMARK  173  A    between atoms: _431  and  _432
REMARK  174  A    between atoms: _435  and  _437
REMARK  175  A    between atoms: _437  and  _438
REMARK  176  A    between atoms: _437  and  _440
REMARK  177  A    between atoms: _440  and  _441
REMARK  178  A    between atoms: _446  and  _448
REMARK  179  A    between atoms: _448  and  _449
REMARK  180  A    between atoms: _451  and  _453
REMARK  181  A    between atoms: _453  and  _454
REMARK  182  A    between atoms: _453  and  _456
REMARK  183  A    between atoms: _456  and  _457
REMARK  184  A    between atoms: _457  and  _458
REMARK  185  A    between atoms: _458  and  _459
REMARK  186  A    between atoms: _459  and  _460
REMARK  187  A    between atoms: _464  and  _466
REMARK  188  A    between atoms: _466  and  _467
REMARK  189  A    between atoms: _466  and  _469
REMARK  190  A    between atoms: _469  and  _470
REMARK  191  A    between atoms: _470  and  _471
REMARK  192  A    between atoms: _471  and  _472
REMARK  193  A    between atoms: _481  and  _483
REMARK  194  A    between atoms: _483  and  _484
REMARK  195  A    between atoms: _483  and  _486
REMARK  196  A    between atoms: _486  and  _487
REMARK  197  A    between atoms: _492  and  _494
REMARK  198  A    between atoms: _494  and  _495
REMARK  199  A    between atoms: _494  and  _497
REMARK  200  A    between atoms: _497  and  _498
REMARK  201  A    between atoms: _503  and  _504
REMARK  202  A    between atoms: _506  and  _508
REMARK  203  A    between atoms: _508  and  _509
REMARK  204  A    between atoms: _508  and  _511
REMARK  205  A    between atoms: _511  and  _512
REMARK  206  A    between atoms: _512  and  _513
REMARK  207  A    between atoms: _513  and  _514
REMARK  208  A    between atoms: _514  and  _515
REMARK  209  A    between atoms: _519  and  _521
REMARK  210  A    between atoms: _521  and  _522
REMARK  211  A    between atoms: _521  and  _524
REMARK  212  A    between atoms: _524  and  _525
REMARK  213  A    between atoms: _527  and  _529
REMARK  214  A    between atoms: _529  and  _530
REMARK  215  A    between atoms: _529  and  _532
REMARK  216  A    between atoms: _532  and  _533
REMARK  217  A    between atoms: _536  and  _538
REMARK  218  A    between atoms: _538  and  _539
REMARK  219  A    between atoms: _538  and  _541
REMARK  220  A    between atoms: _541  and  _542
REMARK  221  A    between atoms: _542  and  _543
REMARK  222  A    between atoms: _546  and  _548
REMARK  223  A    between atoms: _548  and  _549
REMARK  224  A    between atoms: _552  and  _554
REMARK  225  A    between atoms: _554  and  _555
REMARK  226  A    between atoms: _554  and  _557
REMARK  227  A    between atoms: _557  and  _558
REMARK  228  A    between atoms: _560  and  _562
REMARK  229  A    between atoms: _562  and  _563
REMARK  230  A    between atoms: _565  and  _567
REMARK  231  A    between atoms: _567  and  _568
REMARK  232  A    between atoms: _567  and  _570
REMARK  233  A    between atoms: _570  and  _571
REMARK  234  A    between atoms: _574  and  _576
REMARK  235  A    between atoms: _576  and  _577
REMARK  236  A    between atoms: _579  and  _581
REMARK  237  A    between atoms: _581  and  _582
REMARK  238  A    between atoms: _581  and  _584
REMARK  239  A    between atoms: _584  and  _585
REMARK  240  A    between atoms: _590  and  _592
REMARK  241  A    between atoms: _592  and  _593
REMARK  242  A    between atoms: _592  and  _595
REMARK  243  A    between atoms: _595  and  _596
REMARK  244  A    between atoms: _596  and  _597
REMARK  245  A    between atoms: _604  and  _605
REMARK  246  A    between atoms: _605  and  _621
REMARK  247  A    between atoms: _606  and  _608
REMARK  248  A    between atoms: _608  and  _609
REMARK  249  A    between atoms: _609  and  _610
REMARK  250  A    between atoms: _614  and  _616
REMARK  251  A    between atoms: _616  and  _617
REMARK  252  A    between atoms: _616  and  _624
REMARK  253  A    between atoms: _617  and  _618
REMARK  254  A    between atoms: _618  and  _619
REMARK  255  A    between atoms: _619  and  _620
REMARK  256  A    between atoms: _620  and  _621
REMARK  257  A    between atoms: _626  and  _628
REMARK  258  A    between atoms: _628  and  _629
REMARK  259  A    between atoms: _628  and  _631
REMARK  260  A    between atoms: _631  and  _632
REMARK  261  A    between atoms: _635  and  _637
REMARK  262  A    between atoms: _637  and  _638
REMARK  263  A    between atoms: _640  and  _642
REMARK  264  A    between atoms: _642  and  _643
REMARK  265  A    between atoms: _646  and  _648
REMARK  266  A    between atoms: _648  and  _649
REMARK  267  A    between atoms: _648  and  _651
REMARK  268  A    between atoms: _651  and  _652
REMARK  269  A    between atoms: _657  and  _658
REMARK                            x       y       z     vdW  Elec       q    Type
REMARK                         _______ _______ _______ _____ _____    ______ ____
ROOT
ATOM      1  O   HOH     1      42.760  20.411  29.702  0.00  0.00    +0.000 OA
ENDROOT
TORSDOF 0
REMARK  Name = ../refined-set-2016/2qrp/2qrp_pocket.pdb
REMARK  269 active torsions:
REMARK  status: ('A' for Active; 'I' for Inactive)
REMARK    1  A    between atoms: _1  and  _3
REMARK    2  A    between atoms: _3  and  _4
REMARK    3  A    between atoms: _3  and  _6
REMARK    4  A    between atoms: _6  and  _7
REMARK    5  A    between atoms: _12  and  _13
REMARK    6  A    between atoms: _15  and  _17
REMARK    7  A    between atoms: _17  and  _18
REMARK    8  A    between atoms: _17  and  _20
REMARK    9  A    between atoms: _20  and  _21
REMARK   10  A    between atoms: _24  and  _26
REMARK   11  A    between atoms: _26  and  _27
REMARK   12  A    between atoms: _26  and  _29
REMARK   13  A    between atoms: _29  and  _30
REMARK   14  A    between atoms: _30  and  _31
REMARK   15  A    between atoms: _34  and  _36
REMARK   16  A    between atoms: _36  and  _37
REMARK   17  A    between atoms: _39  and  _41
REMARK   18  A    between atoms: _41  and  _42
REMARK   19  A    between atoms: _41  and  _44
REMARK   20  A    between atoms: _44  and  _45
REMARK   21  A    between atoms: _50  and  _52
REMARK   22  A    between atoms: _52  and  _53
REMARK   23  A    between atoms: _55  and  _57
REMARK   24  A    between atoms: _57  and  _58
REMARK   25  A    between atoms: _60  and  _62
REMARK   26  A    between atoms: _62  and  _63
REMARK   27  A    between atoms: _62  and  _65
REMARK   28  A    between atoms: _65  and  _66
REMARK   29  A    between atoms: _69  and  _71
REMARK   30  A    between atoms: _71  and  _72
REMARK   31  A    between atoms: _74  and  _76
REMARK   32  A    between atoms: _76  and  _77
REMARK   33  A    between atoms: _76  and  _79
REMARK   34  A    between atoms: _79  and  _80
REMARK   35  A    between atoms: _80  and  _81
REMARK   36  A    between atoms: _81  and  _82
REMARK   37  A    between atoms: _91  and  _93
REMARK   38  A    between atoms: _93  and  _94
REMARK   39  A    between atoms: _93  and  _96
REMARK   40  A    between atoms: _96  and  _97
REMARK   41  A    between atoms: _100  and  _102
REMARK   42  A    between atoms: _102  and  _103
REMARK   43  A    between atoms: _106  and  _108
REMARK   44  A    between atoms: _108  and  _109
REMARK   45  A    between atoms: _108  and  _111
REMARK   46  A    between atoms: _111  and  _112
REMARK   47  A    between atoms: _118  and  _120
REMARK   48  A    between atoms: _120  and  _121
REMARK   49  A    between atoms: _120  and  _123
REMARK   50  A    between atoms: _123  and  _124
REMARK   51  A    between atoms: _127  and  _129
REMARK   52  A    between atoms: _129  and  _130
REMARK   53  A    between atoms: _129  and  _132
REMARK   54  A    between atoms: _132  and  _133
REMARK   55  A    between atoms: _138  and  _139
REMARK   56  A    between atoms: _142  and  _143
REMARK   57  A    between atoms: _148  and  _150
REMARK   58  A    between atoms: _150  and  _151
REMARK   59  A    between atoms: _150  and  _153
REMARK   60  A    between atoms: _153  and  _154
REMARK   61  A    between atoms: _159  and  _161
REMARK   62  A    between atoms: _161  and  _162
REMARK   63  A    between atoms: _161  and  _164
REMARK   64  A    between atoms: _164  and  _165
REMARK   65  A    between atoms: _168  and  _170
REMARK   66  A    between atoms: _170  and  _171
REMARK   67  A    between atoms: _170  and  _173
REMARK   68  A    between atoms: _173  and  _174
REMARK   69  A    between atoms: _179  and  _181
REMARK   70  A    between atoms: _181  and  _182
REMARK   71  A    between atoms: _181  and  _184
REMARK   72  A    between atoms: _184  and  _185
REMARK   73  A    between atoms: _191  and  _193
REMARK   74  A    between atoms: _193  and  _194
REMARK   75  A    between atoms: _193  and  _196
REMARK   76  A    between atoms: _196  and  _197
REMARK   77  A    between atoms: _203  and  _205
REMARK   78  A    between atoms: _205  and  _206
REMARK   79  A    between atoms: _205  and  _208
REMARK   80  A    between atoms: _208  and  _209
REMARK   81  A    between atoms: _209  and  _210
REMARK   82  A    between atoms: _213  and  _215
REMARK   83  A    between atoms: _215  and  _216
REMARK   84  A    between atoms: _215  and  _218
REMARK   85  A    between atoms: _218  and  _219
REMARK   86  A    between atoms: _219  and  _220
REMARK   87  A    between atoms: _220  and  _221
REMARK   88  A    between atoms: _230  and  _232
REMARK   89  A    between atoms: _232  and  _233
REMARK   90  A    between atoms: _232  and  _235
REMARK   91  A    between atoms: _235  and  _236
REMARK   92  A    between atoms: _236  and  _237
REMARK   93  A    between atoms: _240  and  _242
REMARK   94  A    between atoms: _242  and  _243
REMARK   95  A    between atoms: _242  and  _245
REMARK   96  A    between atoms: _245  and  _246
REMARK   97  A    between atoms: _251  and  _253
REMARK   98  A    between atoms: _253  and  _254
REMARK   99  A    between atoms: _253  and  _256
REMARK  100  A    between atoms: _256  and  _257
REMARK  101  A    between atoms: _260  and  _262
REMARK  102  A    between atoms: _262  and  _263
REMARK  103  A    between atoms: _262  and  _265
REMARK  104  A    between atoms: _265  and  _266
REMARK  105  A    between atoms: _269  and  _271
REMARK  106  A    between atoms: _271  and  _272
REMARK  107  A    between atoms: _271  and  _274
REMARK  108  A    between atoms: _274  and  _275
REMARK  109  A    between atoms: _280  and  _282
REMARK  110  A    between atoms: _282  and  _283
REMARK  111  A    between atoms: _282  and  _285
REMARK  112  A    between atoms: _285  and  _286
REMARK  113  A    between atoms: _289  and  _291
REMARK  114  A    between atoms: _291  and  _292
REMARK  115  A    between atoms: _291  and  _294
REMARK  116  A    between atoms: _294  and  _295
REMARK  117  A    between atoms: _300  and  _302
REMARK  118  A    between atoms: _302  and  _303
REMARK  119  A    between atoms: _302  and  _305
REMARK  120  A    between atoms: _305  and  _306
REMARK  121  A    between atoms: _311  and  _313
REMARK  122  A    between atoms: _313  and  _314
REMARK  123  A    between atoms: _313  and  _316
REMARK  124  A    between atoms: _316  and  _317
REMARK  125  A    between atoms: _320  and  _322
REMARK  126  A    between atoms: _322  and  _323
REMARK  127  A    between atoms: _322  and  _325
REMARK  128  A    between atoms: _328  and  _330
REMARK  129  A    between atoms: _330  and  _331
REMARK  130  A    between atoms: _330  and  _333
REMARK  131  A    between atoms: _333  and  _334
REMARK  132  A    between atoms: _337  and  _339
REMARK  133  A    between atoms: _339  and  _340
REMARK  134  A    between atoms: _339  and  _342
REMARK  135  A    between atoms: _342  and  _343
REMARK  136  A    between atoms: _343  and  _344
REMARK  137  A    between atoms: _347  and  _349
REMARK  138  A    between atoms: _349  and  _350
REMARK  139  A    between atoms: _353  and  _355
REMARK  140  A    between atoms: _355  and  _356
REMARK  141  A    between atoms: _355  and  _358
REMARK  142  A    between atoms: _358  and  _359
REMARK  143  A    between atoms: _362  and  _364
REMARK  144  A    between atoms: _364  and  _365
REMARK  145  A    between atoms: _364  and  _367
REMARK  146  A    between atoms: _367  and  _368
REMARK  147  A    between atoms: _368  and  _369
REMARK  148  A    between atoms: _372  and  _374
REMARK  149  A    between atoms: _374  and  _375
REMARK  150  A    between atoms: _374  and  _377
REMARK  151  A    between atoms: _377  and  _378
REMARK  152  A    between atoms: _383  and  _385
REMARK  153  A    between atoms: _385  and  _386
REMARK  154  A    between atoms: _388  and  _390
REMARK  155  A    between atoms: _390  and  _391
REMARK  156  A    between atoms: _390  and  _393
REMARK  157  A    between atoms: _396  and  _398
REMARK  158  A    between atoms: _398  and  _399
REMARK  159  A    between atoms: _402  and  _404
REMARK  160  A    between atoms: _404  and  _405
REMARK  161  A    between atoms: _404  and  _407
REMARK  162  A    between atoms: _407  and  _408
REMARK  163  A    between atoms: _413  and  _415
REMARK  164  A    between atoms: _415  and  _416
REMARK  165  A    between atoms: _415  and  _418
REMARK  166  A    between atoms: _418  and  _419
REMARK  167  A    between atoms: _419  and  _420
REMARK  168  A    between atoms: _420  and  _421
REMARK  169  A    between atoms: _421  and  _422
REMARK  170  A    between atoms: _426  and  _428
REMARK  171  A    between atoms: _428  and  _429
REMARK  172  A    between atoms: _428  and  _431
REMARK  173  A    between atoms: _431  and  _432
REMARK  174  A    between atoms: _435  and  _437
REMARK  175  A    between atoms: _437  and  _438
REMARK  176  A    between atoms: _437  and  _440
REMARK  177  A    between atoms: _440  and  _441
REMARK  178  A    between atoms: _446  and  _448
REMARK  179  A    between atoms: _448  and  _449
REMARK  180  A    between atoms: _451  and  _453
REMARK  181  A    between atoms: _453  and  _454
REMARK  182  A    between atoms: _453  and  _456
REMARK  183  A    between atoms: _456  and  _457
REMARK  184  A    between atoms: _457  and  _458
REMARK  185  A    between atoms: _458  and  _459
REMARK  186  A    between atoms: _459  and  _460
REMARK  187  A    between atoms: _464  and  _466
REMARK  188  A    between atoms: _466  and  _467
REMARK  189  A    between atoms: _466  and  _469
REMARK  190  A    between atoms: _469  and  _470
REMARK  191  A    between atoms: _470  and  _471
REMARK  192  A    between atoms: _471  and  _472
REMARK  193  A    between atoms: _481  and  _483
REMARK  194  A    between atoms: _483  and  _484
REMARK  195  A    between atoms: _483  and  _486
REMARK  196  A    between atoms: _486  and  _487
REMARK  197  A    between atoms: _492  and  _494
REMARK  198  A    between atoms: _494  and  _495
REMARK  199  A    between atoms: _494  and  _497
REMARK  200  A    between atoms: _497  and  _498
REMARK  201  A    between atoms: _503  and  _504
REMARK  202  A    between atoms: _506  and  _508
REMARK  203  A    between atoms: _508  and  _509
REMARK  204  A    between atoms: _508  and  _511
REMARK  205  A    between atoms: _511  and  _512
REMARK  206  A    between atoms: _512  and  _513
REMARK  207  A    between atoms: _513  and  _514
REMARK  208  A    between atoms: _514  and  _515
REMARK  209  A    between atoms: _519  and  _521
REMARK  210  A    between atoms: _521  and  _522
REMARK  211  A    between atoms: _521  and  _524
REMARK  212  A    between atoms: _524  and  _525
REMARK  213  A    between atoms: _527  and  _529
REMARK  214  A    between atoms: _529  and  _530
REMARK  215  A    between atoms: _529  and  _532
REMARK  216  A    between atoms: _532  and  _533
REMARK  217  A    between atoms: _536  and  _538
REMARK  218  A    between atoms: _538  and  _539
REMARK  219  A    between atoms: _538  and  _541
REMARK  220  A    between atoms: _541  and  _542
REMARK  221  A    between atoms: _542  and  _543
REMARK  222  A    between atoms: _546  and  _548
REMARK  223  A    between atoms: _548  and  _549
REMARK  224  A    between atoms: _552  and  _554
REMARK  225  A    between atoms: _554  and  _555
REMARK  226  A    between atoms: _554  and  _557
REMARK  227  A    between atoms: _557  and  _558
REMARK  228  A    between atoms: _560  and  _562
REMARK  229  A    between atoms: _562  and  _563
REMARK  230  A    between atoms: _565  and  _567
REMARK  231  A    between atoms: _567  and  _568
REMARK  232  A    between atoms: _567  and  _570
REMARK  233  A    between atoms: _570  and  _571
REMARK  234  A    between atoms: _574  and  _576
REMARK  235  A    between atoms: _576  and  _577
REMARK  236  A    between atoms: _579  and  _581
REMARK  237  A    between atoms: _581  and  _582
REMARK  238  A    between atoms: _581  and  _584
REMARK  239  A    between atoms: _584  and  _585
REMARK  240  A    between atoms: _590  and  _592
REMARK  241  A    between atoms: _592  and  _593
REMARK  242  A    between atoms: _592  and  _595
REMARK  243  A    between atoms: _595  and  _596
REMARK  244  A    between atoms: _596  and  _597
REMARK  245  A    between atoms: _604  and  _605
REMARK  246  A    between atoms: _605  and  _621
REMARK  247  A    between atoms: _606  and  _608
REMARK  248  A    between atoms: _608  and  _609
REMARK  249  A    between atoms: _609  and  _610
REMARK  250  A    between atoms: _614  and  _616
REMARK  251  A    between atoms: _616  and  _617
REMARK  252  A    between atoms: _616  and  _624
REMARK  253  A    between atoms: _617  and  _618
REMARK  254  A    between atoms: _618  and  _619
REMARK  255  A    between atoms: _619  and  _620
REMARK  256  A    between atoms: _620  and  _621
REMARK  257  A    between atoms: _626  and  _628
REMARK  258  A    between atoms: _628  and  _629
REMARK  259  A    between atoms: _628  and  _631
REMARK  260  A    between atoms: _631  and  _632
REMARK  261  A    between atoms: _635  and  _637
REMARK  262  A    between atoms: _637  and  _638
REMARK  263  A    between atoms: _640  and  _642
REMARK  264  A    between atoms: _642  and  _643
REMARK  265  A    between atoms: _646  and  _648
REMARK  266  A    between atoms: _648  and  _649
REMARK  267  A    between atoms: _648  and  _651
REMARK  268  A    between atoms: _651  and  _652
REMARK  269  A    between atoms: _657  and  _658
REMARK                            x       y       z     vdW  Elec       q    Type
REMARK                         _______ _______ _______ _____ _____    ______ ____
ROOT
ATOM      1  O   HOH     1      35.721  24.674  23.667  0.00  0.00    +0.000 OA
ENDROOT
TORSDOF 0
REMARK  Name = ../refined-set-2016/2qrp/2qrp_pocket.pdb
REMARK  269 active torsions:
REMARK  status: ('A' for Active; 'I' for Inactive)
REMARK    1  A    between atoms: _1  and  _3
REMARK    2  A    between atoms: _3  and  _4
REMARK    3  A    between atoms: _3  and  _6
REMARK    4  A    between atoms: _6  and  _7
REMARK    5  A    between atoms: _12  and  _13
REMARK    6  A    between atoms: _15  and  _17
REMARK    7  A    between atoms: _17  and  _18
REMARK    8  A    between atoms: _17  and  _20
REMARK    9  A    between atoms: _20  and  _21
REMARK   10  A    between atoms: _24  and  _26
REMARK   11  A    between atoms: _26  and  _27
REMARK   12  A    between atoms: _26  and  _29
REMARK   13  A    between atoms: _29  and  _30
REMARK   14  A    between atoms: _30  and  _31
REMARK   15  A    between atoms: _34  and  _36
REMARK   16  A    between atoms: _36  and  _37
REMARK   17  A    between atoms: _39  and  _41
REMARK   18  A    between atoms: _41  and  _42
REMARK   19  A    between atoms: _41  and  _44
REMARK   20  A    between atoms: _44  and  _45
REMARK   21  A    between atoms: _50  and  _52
REMARK   22  A    between atoms: _52  and  _53
REMARK   23  A    between atoms: _55  and  _57
REMARK   24  A    between atoms: _57  and  _58
REMARK   25  A    between atoms: _60  and  _62
REMARK   26  A    between atoms: _62  and  _63
REMARK   27  A    between atoms: _62  and  _65
REMARK   28  A    between atoms: _65  and  _66
REMARK   29  A    between atoms: _69  and  _71
REMARK   30  A    between atoms: _71  and  _72
REMARK   31  A    between atoms: _74  and  _76
REMARK   32  A    between atoms: _76  and  _77
REMARK   33  A    between atoms: _76  and  _79
REMARK   34  A    between atoms: _79  and  _80
REMARK   35  A    between atoms: _80  and  _81
REMARK   36  A    between atoms: _81  and  _82
REMARK   37  A    between atoms: _91  and  _93
REMARK   38  A    between atoms: _93  and  _94
REMARK   39  A    between atoms: _93  and  _96
REMARK   40  A    between atoms: _96  and  _97
REMARK   41  A    between atoms: _100  and  _102
REMARK   42  A    between atoms: _102  and  _103
REMARK   43  A    between atoms: _106  and  _108
REMARK   44  A    between atoms: _108  and  _109
REMARK   45  A    between atoms: _108  and  _111
REMARK   46  A    between atoms: _111  and  _112
REMARK   47  A    between atoms: _118  and  _120
REMARK   48  A    between atoms: _120  and  _121
REMARK   49  A    between atoms: _120  and  _123
REMARK   50  A    between atoms: _123  and  _124
REMARK   51  A    between atoms: _127  and  _129
REMARK   52  A    between atoms: _129  and  _130
REMARK   53  A    between atoms: _129  and  _132
REMARK   54  A    between atoms: _132  and  _133
REMARK   55  A    between atoms: _138  and  _139
REMARK   56  A    between atoms: _142  and  _143
REMARK   57  A    between atoms: _148  and  _150
REMARK   58  A    between atoms: _150  and  _151
REMARK   59  A    between atoms: _150  and  _153
REMARK   60  A    between atoms: _153  and  _154
REMARK   61  A    between atoms: _159  and  _161
REMARK   62  A    between atoms: _161  and  _162
REMARK   63  A    between atoms: _161  and  _164
REMARK   64  A    between atoms: _164  and  _165
REMARK   65  A    between atoms: _168  and  _170
REMARK   66  A    between atoms: _170  and  _171
REMARK   67  A    between atoms: _170  and  _173
REMARK   68  A    between atoms: _173  and  _174
REMARK   69  A    between atoms: _179  and  _181
REMARK   70  A    between atoms: _181  and  _182
REMARK   71  A    between atoms: _181  and  _184
REMARK   72  A    between atoms: _184  and  _185
REMARK   73  A    between atoms: _191  and  _193
REMARK   74  A    between atoms: _193  and  _194
REMARK   75  A    between atoms: _193  and  _196
REMARK   76  A    between atoms: _196  and  _197
REMARK   77  A    between atoms: _203  and  _205
REMARK   78  A    between atoms: _205  and  _206
REMARK   79  A    between atoms: _205  and  _208
REMARK   80  A    between atoms: _208  and  _209
REMARK   81  A    between atoms: _209  and  _210
REMARK   82  A    between atoms: _213  and  _215
REMARK   83  A    between atoms: _215  and  _216
REMARK   84  A    between atoms: _215  and  _218
REMARK   85  A    between atoms: _218  and  _219
REMARK   86  A    between atoms: _219  and  _220
REMARK   87  A    between atoms: _220  and  _221
REMARK   88  A    between atoms: _230  and  _232
REMARK   89  A    between atoms: _232  and  _233
REMARK   90  A    between atoms: _232  and  _235
REMARK   91  A    between atoms: _235  and  _236
REMARK   92  A    between atoms: _236  and  _237
REMARK   93  A    between atoms: _240  and  _242
REMARK   94  A    between atoms: _242  and  _243
REMARK   95  A    between atoms: _242  and  _245
REMARK   96  A    between atoms: _245  and  _246
REMARK   97  A    between atoms: _251  and  _253
REMARK   98  A    between atoms: _253  and  _254
REMARK   99  A    between atoms: _253  and  _256
REMARK  100  A    between atoms: _256  and  _257
REMARK  101  A    between atoms: _260  and  _262
REMARK  102  A    between atoms: _262  and  _263
REMARK  103  A    between atoms: _262  and  _265
REMARK  104  A    between atoms: _265  and  _266
REMARK  105  A    between atoms: _269  and  _271
REMARK  106  A    between atoms: _271  and  _272
REMARK  107  A    between atoms: _271  and  _274
REMARK  108  A    between atoms: _274  and  _275
REMARK  109  A    between atoms: _280  and  _282
REMARK  110  A    between atoms: _282  and  _283
REMARK  111  A    between atoms: _282  and  _285
REMARK  112  A    between atoms: _285  and  _286
REMARK  113  A    between atoms: _289  and  _291
REMARK  114  A    between atoms: _291  and  _292
REMARK  115  A    between atoms: _291  and  _294
REMARK  116  A    between atoms: _294  and  _295
REMARK  117  A    between atoms: _300  and  _302
REMARK  118  A    between atoms: _302  and  _303
REMARK  119  A    between atoms: _302  and  _305
REMARK  120  A    between atoms: _305  and  _306
REMARK  121  A    between atoms: _311  and  _313
REMARK  122  A    between atoms: _313  and  _314
REMARK  123  A    between atoms: _313  and  _316
REMARK  124  A    between atoms: _316  and  _317
REMARK  125  A    between atoms: _320  and  _322
REMARK  126  A    between atoms: _322  and  _323
REMARK  127  A    between atoms: _322  and  _325
REMARK  128  A    between atoms: _328  and  _330
REMARK  129  A    between atoms: _330  and  _331
REMARK  130  A    between atoms: _330  and  _333
REMARK  131  A    between atoms: _333  and  _334
REMARK  132  A    between atoms: _337  and  _339
REMARK  133  A    between atoms: _339  and  _340
REMARK  134  A    between atoms: _339  and  _342
REMARK  135  A    between atoms: _342  and  _343
REMARK  136  A    between atoms: _343  and  _344
REMARK  137  A    between atoms: _347  and  _349
REMARK  138  A    between atoms: _349  and  _350
REMARK  139  A    between atoms: _353  and  _355
REMARK  140  A    between atoms: _355  and  _356
REMARK  141  A    between atoms: _355  and  _358
REMARK  142  A    between atoms: _358  and  _359
REMARK  143  A    between atoms: _362  and  _364
REMARK  144  A    between atoms: _364  and  _365
REMARK  145  A    between atoms: _364  and  _367
REMARK  146  A    between atoms: _367  and  _368
REMARK  147  A    between atoms: _368  and  _369
REMARK  148  A    between atoms: _372  and  _374
REMARK  149  A    between atoms: _374  and  _375
REMARK  150  A    between atoms: _374  and  _377
REMARK  151  A    between atoms: _377  and  _378
REMARK  152  A    between atoms: _383  and  _385
REMARK  153  A    between atoms: _385  and  _386
REMARK  154  A    between atoms: _388  and  _390
REMARK  155  A    between atoms: _390  and  _391
REMARK  156  A    between atoms: _390  and  _393
REMARK  157  A    between atoms: _396  and  _398
REMARK  158  A    between atoms: _398  and  _399
REMARK  159  A    between atoms: _402  and  _404
REMARK  160  A    between atoms: _404  and  _405
REMARK  161  A    between atoms: _404  and  _407
REMARK  162  A    between atoms: _407  and  _408
REMARK  163  A    between atoms: _413  and  _415
REMARK  164  A    between atoms: _415  and  _416
REMARK  165  A    between atoms: _415  and  _418
REMARK  166  A    between atoms: _418  and  _419
REMARK  167  A    between atoms: _419  and  _420
REMARK  168  A    between atoms: _420  and  _421
REMARK  169  A    between atoms: _421  and  _422
REMARK  170  A    between atoms: _426  and  _428
REMARK  171  A    between atoms: _428  and  _429
REMARK  172  A    between atoms: _428  and  _431
REMARK  173  A    between atoms: _431  and  _432
REMARK  174  A    between atoms: _435  and  _437
REMARK  175  A    between atoms: _437  and  _438
REMARK  176  A    between atoms: _437  and  _440
REMARK  177  A    between atoms: _440  and  _441
REMARK  178  A    between atoms: _446  and  _448
REMARK  179  A    between atoms: _448  and  _449
REMARK  180  A    between atoms: _451  and  _453
REMARK  181  A    between atoms: _453  and  _454
REMARK  182  A    between atoms: _453  and  _456
REMARK  183  A    between atoms: _456  and  _457
REMARK  184  A    between atoms: _457  and  _458
REMARK  185  A    between atoms: _458  and  _459
REMARK  186  A    between atoms: _459  and  _460
REMARK  187  A    between atoms: _464  and  _466
REMARK  188  A    between atoms: _466  and  _467
REMARK  189  A    between atoms: _466  and  _469
REMARK  190  A    between atoms: _469  and  _470
REMARK  191  A    between atoms: _470  and  _471
REMARK  192  A    between atoms: _471  and  _472
REMARK  193  A    between atoms: _481  and  _483
REMARK  194  A    between atoms: _483  and  _484
REMARK  195  A    between atoms: _483  and  _486
REMARK  196  A    between atoms: _486  and  _487
REMARK  197  A    between atoms: _492  and  _494
REMARK  198  A    between atoms: _494  and  _495
REMARK  199  A    between atoms: _494  and  _497
REMARK  200  A    between atoms: _497  and  _498
REMARK  201  A    between atoms: _503  and  _504
REMARK  202  A    between atoms: _506  and  _508
REMARK  203  A    between atoms: _508  and  _509
REMARK  204  A    between atoms: _508  and  _511
REMARK  205  A    between atoms: _511  and  _512
REMARK  206  A    between atoms: _512  and  _513
REMARK  207  A    between atoms: _513  and  _514
REMARK  208  A    between atoms: _514  and  _515
REMARK  209  A    between atoms: _519  and  _521
REMARK  210  A    between atoms: _521  and  _522
REMARK  211  A    between atoms: _521  and  _524
REMARK  212  A    between atoms: _524  and  _525
REMARK  213  A    between atoms: _527  and  _529
REMARK  214  A    between atoms: _529  and  _530
REMARK  215  A    between atoms: _529  and  _532
REMARK  216  A    between atoms: _532  and  _533
REMARK  217  A    between atoms: _536  and  _538
REMARK  218  A    between atoms: _538  and  _539
REMARK  219  A    between atoms: _538  and  _541
REMARK  220  A    between atoms: _541  and  _542
REMARK  221  A    between atoms: _542  and  _543
REMARK  222  A    between atoms: _546  and  _548
REMARK  223  A    between atoms: _548  and  _549
REMARK  224  A    between atoms: _552  and  _554
REMARK  225  A    between atoms: _554  and  _555
REMARK  226  A    between atoms: _554  and  _557
REMARK  227  A    between atoms: _557  and  _558
REMARK  228  A    between atoms: _560  and  _562
REMARK  229  A    between atoms: _562  and  _563
REMARK  230  A    between atoms: _565  and  _567
REMARK  231  A    between atoms: _567  and  _568
REMARK  232  A    between atoms: _567  and  _570
REMARK  233  A    between atoms: _570  and  _571
REMARK  234  A    between atoms: _574  and  _576
REMARK  235  A    between atoms: _576  and  _577
REMARK  236  A    between atoms: _579  and  _581
REMARK  237  A    between atoms: _581  and  _582
REMARK  238  A    between atoms: _581  and  _584
REMARK  239  A    between atoms: _584  and  _585
REMARK  240  A    between atoms: _590  and  _592
REMARK  241  A    between atoms: _592  and  _593
REMARK  242  A    between atoms: _592  and  _595
REMARK  243  A    between atoms: _595  and  _596
REMARK  244  A    between atoms: _596  and  _597
REMARK  245  A    between atoms: _604  and  _605
REMARK  246  A    between atoms: _605  and  _621
REMARK  247  A    between atoms: _606  and  _608
REMARK  248  A    between atoms: _608  and  _609
REMARK  249  A    between atoms: _609  and  _610
REMARK  250  A    between atoms: _614  and  _616
REMARK  251  A    between atoms: _616  and  _617
REMARK  252  A    between atoms: _616  and  _624
REMARK  253  A    between atoms: _617  and  _618
REMARK  254  A    between atoms: _618  and  _619
REMARK  255  A    between atoms: _619  and  _620
REMARK  256  A    between atoms: _620  and  _621
REMARK  257  A    between atoms: _626  and  _628
REMARK  258  A    between atoms: _628  and  _629
REMARK  259  A    between atoms: _628  and  _631
REMARK  260  A    between atoms: _631  and  _632
REMARK  261  A    between atoms: _635  and  _637
REMARK  262  A    between atoms: _637  and  _638
REMARK  263  A    between atoms: _640  and  _642
REMARK  264  A    between atoms: _642  and  _643
REMARK  265  A    between atoms: _646  and  _648
REMARK  266  A    between atoms: _648  and  _649
REMARK  267  A    between atoms: _648  and  _651
REMARK  268  A    between atoms: _651  and  _652
REMARK  269  A    between atoms: _657  and  _658
REMARK                            x       y       z     vdW  Elec       q    Type
REMARK                         _______ _______ _______ _____ _____    ______ ____
ROOT
ATOM      1  O   HOH     1      29.466  25.753  28.673  0.00  0.00    +0.000 OA
ENDROOT
TORSDOF 0
REMARK  Name = ../refined-set-2016/2qrp/2qrp_pocket.pdb
REMARK  269 active torsions:
REMARK  status: ('A' for Active; 'I' for Inactive)
REMARK    1  A    between atoms: _1  and  _3
REMARK    2  A    between atoms: _3  and  _4
REMARK    3  A    between atoms: _3  and  _6
REMARK    4  A    between atoms: _6  and  _7
REMARK    5  A    between atoms: _12  and  _13
REMARK    6  A    between atoms: _15  and  _17
REMARK    7  A    between atoms: _17  and  _18
REMARK    8  A    between atoms: _17  and  _20
REMARK    9  A    between atoms: _20  and  _21
REMARK   10  A    between atoms: _24  and  _26
REMARK   11  A    between atoms: _26  and  _27
REMARK   12  A    between atoms: _26  and  _29
REMARK   13  A    between atoms: _29  and  _30
REMARK   14  A    between atoms: _30  and  _31
REMARK   15  A    between atoms: _34  and  _36
REMARK   16  A    between atoms: _36  and  _37
REMARK   17  A    between atoms: _39  and  _41
REMARK   18  A    between atoms: _41  and  _42
REMARK   19  A    between atoms: _41  and  _44
REMARK   20  A    between atoms: _44  and  _45
REMARK   21  A    between atoms: _50  and  _52
REMARK   22  A    between atoms: _52  and  _53
REMARK   23  A    between atoms: _55  and  _57
REMARK   24  A    between atoms: _57  and  _58
REMARK   25  A    between atoms: _60  and  _62
REMARK   26  A    between atoms: _62  and  _63
REMARK   27  A    between atoms: _62  and  _65
REMARK   28  A    between atoms: _65  and  _66
REMARK   29  A    between atoms: _69  and  _71
REMARK   30  A    between atoms: _71  and  _72
REMARK   31  A    between atoms: _74  and  _76
REMARK   32  A    between atoms: _76  and  _77
REMARK   33  A    between atoms: _76  and  _79
REMARK   34  A    between atoms: _79  and  _80
REMARK   35  A    between atoms: _80  and  _81
REMARK   36  A    between atoms: _81  and  _82
REMARK   37  A    between atoms: _91  and  _93
REMARK   38  A    between atoms: _93  and  _94
REMARK   39  A    between atoms: _93  and  _96
REMARK   40  A    between atoms: _96  and  _97
REMARK   41  A    between atoms: _100  and  _102
REMARK   42  A    between atoms: _102  and  _103
REMARK   43  A    between atoms: _106  and  _108
REMARK   44  A    between atoms: _108  and  _109
REMARK   45  A    between atoms: _108  and  _111
REMARK   46  A    between atoms: _111  and  _112
REMARK   47  A    between atoms: _118  and  _120
REMARK   48  A    between atoms: _120  and  _121
REMARK   49  A    between atoms: _120  and  _123
REMARK   50  A    between atoms: _123  and  _124
REMARK   51  A    between atoms: _127  and  _129
REMARK   52  A    between atoms: _129  and  _130
REMARK   53  A    between atoms: _129  and  _132
REMARK   54  A    between atoms: _132  and  _133
REMARK   55  A    between atoms: _138  and  _139
REMARK   56  A    between atoms: _142  and  _143
REMARK   57  A    between atoms: _148  and  _150
REMARK   58  A    between atoms: _150  and  _151
REMARK   59  A    between atoms: _150  and  _153
REMARK   60  A    between atoms: _153  and  _154
REMARK   61  A    between atoms: _159  and  _161
REMARK   62  A    between atoms: _161  and  _162
REMARK   63  A    between atoms: _161  and  _164
REMARK   64  A    between atoms: _164  and  _165
REMARK   65  A    between atoms: _168  and  _170
REMARK   66  A    between atoms: _170  and  _171
REMARK   67  A    between atoms: _170  and  _173
REMARK   68  A    between atoms: _173  and  _174
REMARK   69  A    between atoms: _179  and  _181
REMARK   70  A    between atoms: _181  and  _182
REMARK   71  A    between atoms: _181  and  _184
REMARK   72  A    between atoms: _184  and  _185
REMARK   73  A    between atoms: _191  and  _193
REMARK   74  A    between atoms: _193  and  _194
REMARK   75  A    between atoms: _193  and  _196
REMARK   76  A    between atoms: _196  and  _197
REMARK   77  A    between atoms: _203  and  _205
REMARK   78  A    between atoms: _205  and  _206
REMARK   79  A    between atoms: _205  and  _208
REMARK   80  A    between atoms: _208  and  _209
REMARK   81  A    between atoms: _209  and  _210
REMARK   82  A    between atoms: _213  and  _215
REMARK   83  A    between atoms: _215  and  _216
REMARK   84  A    between atoms: _215  and  _218
REMARK   85  A    between atoms: _218  and  _219
REMARK   86  A    between atoms: _219  and  _220
REMARK   87  A    between atoms: _220  and  _221
REMARK   88  A    between atoms: _230  and  _232
REMARK   89  A    between atoms: _232  and  _233
REMARK   90  A    between atoms: _232  and  _235
REMARK   91  A    between atoms: _235  and  _236
REMARK   92  A    between atoms: _236  and  _237
REMARK   93  A    between atoms: _240  and  _242
REMARK   94  A    between atoms: _242  and  _243
REMARK   95  A    between atoms: _242  and  _245
REMARK   96  A    between atoms: _245  and  _246
REMARK   97  A    between atoms: _251  and  _253
REMARK   98  A    between atoms: _253  and  _254
REMARK   99  A    between atoms: _253  and  _256
REMARK  100  A    between atoms: _256  and  _257
REMARK  101  A    between atoms: _260  and  _262
REMARK  102  A    between atoms: _262  and  _263
REMARK  103  A    between atoms: _262  and  _265
REMARK  104  A    between atoms: _265  and  _266
REMARK  105  A    between atoms: _269  and  _271
REMARK  106  A    between atoms: _271  and  _272
REMARK  107  A    between atoms: _271  and  _274
REMARK  108  A    between atoms: _274  and  _275
REMARK  109  A    between atoms: _280  and  _282
REMARK  110  A    between atoms: _282  and  _283
REMARK  111  A    between atoms: _282  and  _285
REMARK  112  A    between atoms: _285  and  _286
REMARK  113  A    between atoms: _289  and  _291
REMARK  114  A    between atoms: _291  and  _292
REMARK  115  A    between atoms: _291  and  _294
REMARK  116  A    between atoms: _294  and  _295
REMARK  117  A    between atoms: _300  and  _302
REMARK  118  A    between atoms: _302  and  _303
REMARK  119  A    between atoms: _302  and  _305
REMARK  120  A    between atoms: _305  and  _306
REMARK  121  A    between atoms: _311  and  _313
REMARK  122  A    between atoms: _313  and  _314
REMARK  123  A    between atoms: _313  and  _316
REMARK  124  A    between atoms: _316  and  _317
REMARK  125  A    between atoms: _320  and  _322
REMARK  126  A    between atoms: _322  and  _323
REMARK  127  A    between atoms: _322  and  _325
REMARK  128  A    between atoms: _328  and  _330
REMARK  129  A    between atoms: _330  and  _331
REMARK  130  A    between atoms: _330  and  _333
REMARK  131  A    between atoms: _333  and  _334
REMARK  132  A    between atoms: _337  and  _339
REMARK  133  A    between atoms: _339  and  _340
REMARK  134  A    between atoms: _339  and  _342
REMARK  135  A    between atoms: _342  and  _343
REMARK  136  A    between atoms: _343  and  _344
REMARK  137  A    between atoms: _347  and  _349
REMARK  138  A    between atoms: _349  and  _350
REMARK  139  A    between atoms: _353  and  _355
REMARK  140  A    between atoms: _355  and  _356
REMARK  141  A    between atoms: _355  and  _358
REMARK  142  A    between atoms: _358  and  _359
REMARK  143  A    between atoms: _362  and  _364
REMARK  144  A    between atoms: _364  and  _365
REMARK  145  A    between atoms: _364  and  _367
REMARK  146  A    between atoms: _367  and  _368
REMARK  147  A    between atoms: _368  and  _369
REMARK  148  A    between atoms: _372  and  _374
REMARK  149  A    between atoms: _374  and  _375
REMARK  150  A    between atoms: _374  and  _377
REMARK  151  A    between atoms: _377  and  _378
REMARK  152  A    between atoms: _383  and  _385
REMARK  153  A    between atoms: _385  and  _386
REMARK  154  A    between atoms: _388  and  _390
REMARK  155  A    between atoms: _390  and  _391
REMARK  156  A    between atoms: _390  and  _393
REMARK  157  A    between atoms: _396  and  _398
REMARK  158  A    between atoms: _398  and  _399
REMARK  159  A    between atoms: _402  and  _404
REMARK  160  A    between atoms: _404  and  _405
REMARK  161  A    between atoms: _404  and  _407
REMARK  162  A    between atoms: _407  and  _408
REMARK  163  A    between atoms: _413  and  _415
REMARK  164  A    between atoms: _415  and  _416
REMARK  165  A    between atoms: _415  and  _418
REMARK  166  A    between atoms: _418  and  _419
REMARK  167  A    between atoms: _419  and  _420
REMARK  168  A    between atoms: _420  and  _421
REMARK  169  A    between atoms: _421  and  _422
REMARK  170  A    between atoms: _426  and  _428
REMARK  171  A    between atoms: _428  and  _429
REMARK  172  A    between atoms: _428  and  _431
REMARK  173  A    between atoms: _431  and  _432
REMARK  174  A    between atoms: _435  and  _437
REMARK  175  A    between atoms: _437  and  _438
REMARK  176  A    between atoms: _437  and  _440
REMARK  177  A    between atoms: _440  and  _441
REMARK  178  A    between atoms: _446  and  _448
REMARK  179  A    between atoms: _448  and  _449
REMARK  180  A    between atoms: _451  and  _453
REMARK  181  A    between atoms: _453  and  _454
REMARK  182  A    between atoms: _453  and  _456
REMARK  183  A    between atoms: _456  and  _457
REMARK  184  A    between atoms: _457  and  _458
REMARK  185  A    between atoms: _458  and  _459
REMARK  186  A    between atoms: _459  and  _460
REMARK  187  A    between atoms: _464  and  _466
REMARK  188  A    between atoms: _466  and  _467
REMARK  189  A    between atoms: _466  and  _469
REMARK  190  A    between atoms: _469  and  _470
REMARK  191  A    between atoms: _470  and  _471
REMARK  192  A    between atoms: _471  and  _472
REMARK  193  A    between atoms: _481  and  _483
REMARK  194  A    between atoms: _483  and  _484
REMARK  195  A    between atoms: _483  and  _486
REMARK  196  A    between atoms: _486  and  _487
REMARK  197  A    between atoms: _492  and  _494
REMARK  198  A    between atoms: _494  and  _495
REMARK  199  A    between atoms: _494  and  _497
REMARK  200  A    between atoms: _497  and  _498
REMARK  201  A    between atoms: _503  and  _504
REMARK  202  A    between atoms: _506  and  _508
REMARK  203  A    between atoms: _508  and  _509
REMARK  204  A    between atoms: _508  and  _511
REMARK  205  A    between atoms: _511  and  _512
REMARK  206  A    between atoms: _512  and  _513
REMARK  207  A    between atoms: _513  and  _514
REMARK  208  A    between atoms: _514  and  _515
REMARK  209  A    between atoms: _519  and  _521
REMARK  210  A    between atoms: _521  and  _522
REMARK  211  A    between atoms: _521  and  _524
REMARK  212  A    between atoms: _524  and  _525
REMARK  213  A    between atoms: _527  and  _529
REMARK  214  A    between atoms: _529  and  _530
REMARK  215  A    between atoms: _529  and  _532
REMARK  216  A    between atoms: _532  and  _533
REMARK  217  A    between atoms: _536  and  _538
REMARK  218  A    between atoms: _538  and  _539
REMARK  219  A    between atoms: _538  and  _541
REMARK  220  A    between atoms: _541  and  _542
REMARK  221  A    between atoms: _542  and  _543
REMARK  222  A    between atoms: _546  and  _548
REMARK  223  A    between atoms: _548  and  _549
REMARK  224  A    between atoms: _552  and  _554
REMARK  225  A    between atoms: _554  and  _555
REMARK  226  A    between atoms: _554  and  _557
REMARK  227  A    between atoms: _557  and  _558
REMARK  228  A    between atoms: _560  and  _562
REMARK  229  A    between atoms: _562  and  _563
REMARK  230  A    between atoms: _565  and  _567
REMARK  231  A    between atoms: _567  and  _568
REMARK  232  A    between atoms: _567  and  _570
REMARK  233  A    between atoms: _570  and  _571
REMARK  234  A    between atoms: _574  and  _576
REMARK  235  A    between atoms: _576  and  _577
REMARK  236  A    between atoms: _579  and  _581
REMARK  237  A    between atoms: _581  and  _582
REMARK  238  A    between atoms: _581  and  _584
REMARK  239  A    between atoms: _584  and  _585
REMARK  240  A    between atoms: _590  and  _592
REMARK  241  A    between atoms: _592  and  _593
REMARK  242  A    between atoms: _592  and  _595
REMARK  243  A    between atoms: _595  and  _596
REMARK  244  A    between atoms: _596  and  _597
REMARK  245  A    between atoms: _604  and  _605
REMARK  246  A    between atoms: _605  and  _621
REMARK  247  A    between atoms: _606  and  _608
REMARK  248  A    between atoms: _608  and  _609
REMARK  249  A    between atoms: _609  and  _610
REMARK  250  A    between atoms: _614  and  _616
REMARK  251  A    between atoms: _616  and  _617
REMARK  252  A    between atoms: _616  and  _624
REMARK  253  A    between atoms: _617  and  _618
REMARK  254  A    between atoms: _618  and  _619
REMARK  255  A    between atoms: _619  and  _620
REMARK  256  A    between atoms: _620  and  _621
REMARK  257  A    between atoms: _626  and  _628
REMARK  258  A    between atoms: _628  and  _629
REMARK  259  A    between atoms: _628  and  _631
REMARK  260  A    between atoms: _631  and  _632
REMARK  261  A    between atoms: _635  and  _637
REMARK  262  A    between atoms: _637  and  _638
REMARK  263  A    between atoms: _640  and  _642
REMARK  264  A    between atoms: _642  and  _643
REMARK  265  A    between atoms: _646  and  _648
REMARK  266  A    between atoms: _648  and  _649
REMARK  267  A    between atoms: _648  and  _651
REMARK  268  A    between atoms: _651  and  _652
REMARK  269  A    between atoms: _657  and  _658
REMARK                            x       y       z     vdW  Elec       q    Type
REMARK                         _______ _______ _______ _____ _____    ______ ____
ROOT
ATOM      1  O   HOH     1      35.573  23.373  36.759  0.00  0.00    +0.000 OA
ENDROOT
TORSDOF 0
REMARK  Name = ../refined-set-2016/2qrp/2qrp_pocket.pdb
REMARK  269 active torsions:
REMARK  status: ('A' for Active; 'I' for Inactive)
REMARK    1  A    between atoms: _1  and  _3
REMARK    2  A    between atoms: _3  and  _4
REMARK    3  A    between atoms: _3  and  _6
REMARK    4  A    between atoms: _6  and  _7
REMARK    5  A    between atoms: _12  and  _13
REMARK    6  A    between atoms: _15  and  _17
REMARK    7  A    between atoms: _17  and  _18
REMARK    8  A    between atoms: _17  and  _20
REMARK    9  A    between atoms: _20  and  _21
REMARK   10  A    between atoms: _24  and  _26
REMARK   11  A    between atoms: _26  and  _27
REMARK   12  A    between atoms: _26  and  _29
REMARK   13  A    between atoms: _29  and  _30
REMARK   14  A    between atoms: _30  and  _31
REMARK   15  A    between atoms: _34  and  _36
REMARK   16  A    between atoms: _36  and  _37
REMARK   17  A    between atoms: _39  and  _41
REMARK   18  A    between atoms: _41  and  _42
REMARK   19  A    between atoms: _41  and  _44
REMARK   20  A    between atoms: _44  and  _45
REMARK   21  A    between atoms: _50  and  _52
REMARK   22  A    between atoms: _52  and  _53
REMARK   23  A    between atoms: _55  and  _57
REMARK   24  A    between atoms: _57  and  _58
REMARK   25  A    between atoms: _60  and  _62
REMARK   26  A    between atoms: _62  and  _63
REMARK   27  A    between atoms: _62  and  _65
REMARK   28  A    between atoms: _65  and  _66
REMARK   29  A    between atoms: _69  and  _71
REMARK   30  A    between atoms: _71  and  _72
REMARK   31  A    between atoms: _74  and  _76
REMARK   32  A    between atoms: _76  and  _77
REMARK   33  A    between atoms: _76  and  _79
REMARK   34  A    between atoms: _79  and  _80
REMARK   35  A    between atoms: _80  and  _81
REMARK   36  A    between atoms: _81  and  _82
REMARK   37  A    between atoms: _91  and  _93
REMARK   38  A    between atoms: _93  and  _94
REMARK   39  A    between atoms: _93  and  _96
REMARK   40  A    between atoms: _96  and  _97
REMARK   41  A    between atoms: _100  and  _102
REMARK   42  A    between atoms: _102  and  _103
REMARK   43  A    between atoms: _106  and  _108
REMARK   44  A    between atoms: _108  and  _109
REMARK   45  A    between atoms: _108  and  _111
REMARK   46  A    between atoms: _111  and  _112
REMARK   47  A    between atoms: _118  and  _120
REMARK   48  A    between atoms: _120  and  _121
REMARK   49  A    between atoms: _120  and  _123
REMARK   50  A    between atoms: _123  and  _124
REMARK   51  A    between atoms: _127  and  _129
REMARK   52  A    between atoms: _129  and  _130
REMARK   53  A    between atoms: _129  and  _132
REMARK   54  A    between atoms: _132  and  _133
REMARK   55  A    between atoms: _138  and  _139
REMARK   56  A    between atoms: _142  and  _143
REMARK   57  A    between atoms: _148  and  _150
REMARK   58  A    between atoms: _150  and  _151
REMARK   59  A    between atoms: _150  and  _153
REMARK   60  A    between atoms: _153  and  _154
REMARK   61  A    between atoms: _159  and  _161
REMARK   62  A    between atoms: _161  and  _162
REMARK   63  A    between atoms: _161  and  _164
REMARK   64  A    between atoms: _164  and  _165
REMARK   65  A    between atoms: _168  and  _170
REMARK   66  A    between atoms: _170  and  _171
REMARK   67  A    between atoms: _170  and  _173
REMARK   68  A    between atoms: _173  and  _174
REMARK   69  A    between atoms: _179  and  _181
REMARK   70  A    between atoms: _181  and  _182
REMARK   71  A    between atoms: _181  and  _184
REMARK   72  A    between atoms: _184  and  _185
REMARK   73  A    between atoms: _191  and  _193
REMARK   74  A    between atoms: _193  and  _194
REMARK   75  A    between atoms: _193  and  _196
REMARK   76  A    between atoms: _196  and  _197
REMARK   77  A    between atoms: _203  and  _205
REMARK   78  A    between atoms: _205  and  _206
REMARK   79  A    between atoms: _205  and  _208
REMARK   80  A    between atoms: _208  and  _209
REMARK   81  A    between atoms: _209  and  _210
REMARK   82  A    between atoms: _213  and  _215
REMARK   83  A    between atoms: _215  and  _216
REMARK   84  A    between atoms: _215  and  _218
REMARK   85  A    between atoms: _218  and  _219
REMARK   86  A    between atoms: _219  and  _220
REMARK   87  A    between atoms: _220  and  _221
REMARK   88  A    between atoms: _230  and  _232
REMARK   89  A    between atoms: _232  and  _233
REMARK   90  A    between atoms: _232  and  _235
REMARK   91  A    between atoms: _235  and  _236
REMARK   92  A    between atoms: _236  and  _237
REMARK   93  A    between atoms: _240  and  _242
REMARK   94  A    between atoms: _242  and  _243
REMARK   95  A    between atoms: _242  and  _245
REMARK   96  A    between atoms: _245  and  _246
REMARK   97  A    between atoms: _251  and  _253
REMARK   98  A    between atoms: _253  and  _254
REMARK   99  A    between atoms: _253  and  _256
REMARK  100  A    between atoms: _256  and  _257
REMARK  101  A    between atoms: _260  and  _262
REMARK  102  A    between atoms: _262  and  _263
REMARK  103  A    between atoms: _262  and  _265
REMARK  104  A    between atoms: _265  and  _266
REMARK  105  A    between atoms: _269  and  _271
REMARK  106  A    between atoms: _271  and  _272
REMARK  107  A    between atoms: _271  and  _274
REMARK  108  A    between atoms: _274  and  _275
REMARK  109  A    between atoms: _280  and  _282
REMARK  110  A    between atoms: _282  and  _283
REMARK  111  A    between atoms: _282  and  _285
REMARK  112  A    between atoms: _285  and  _286
REMARK  113  A    between atoms: _289  and  _291
REMARK  114  A    between atoms: _291  and  _292
REMARK  115  A    between atoms: _291  and  _294
REMARK  116  A    between atoms: _294  and  _295
REMARK  117  A    between atoms: _300  and  _302
REMARK  118  A    between atoms: _302  and  _303
REMARK  119  A    between atoms: _302  and  _305
REMARK  120  A    between atoms: _305  and  _306
REMARK  121  A    between atoms: _311  and  _313
REMARK  122  A    between atoms: _313  and  _314
REMARK  123  A    between atoms: _313  and  _316
REMARK  124  A    between atoms: _316  and  _317
REMARK  125  A    between atoms: _320  and  _322
REMARK  126  A    between atoms: _322  and  _323
REMARK  127  A    between atoms: _322  and  _325
REMARK  128  A    between atoms: _328  and  _330
REMARK  129  A    between atoms: _330  and  _331
REMARK  130  A    between atoms: _330  and  _333
REMARK  131  A    between atoms: _333  and  _334
REMARK  132  A    between atoms: _337  and  _339
REMARK  133  A    between atoms: _339  and  _340
REMARK  134  A    between atoms: _339  and  _342
REMARK  135  A    between atoms: _342  and  _343
REMARK  136  A    between atoms: _343  and  _344
REMARK  137  A    between atoms: _347  and  _349
REMARK  138  A    between atoms: _349  and  _350
REMARK  139  A    between atoms: _353  and  _355
REMARK  140  A    between atoms: _355  and  _356
REMARK  141  A    between atoms: _355  and  _358
REMARK  142  A    between atoms: _358  and  _359
REMARK  143  A    between atoms: _362  and  _364
REMARK  144  A    between atoms: _364  and  _365
REMARK  145  A    between atoms: _364  and  _367
REMARK  146  A    between atoms: _367  and  _368
REMARK  147  A    between atoms: _368  and  _369
REMARK  148  A    between atoms: _372  and  _374
REMARK  149  A    between atoms: _374  and  _375
REMARK  150  A    between atoms: _374  and  _377
REMARK  151  A    between atoms: _377  and  _378
REMARK  152  A    between atoms: _383  and  _385
REMARK  153  A    between atoms: _385  and  _386
REMARK  154  A    between atoms: _388  and  _390
REMARK  155  A    between atoms: _390  and  _391
REMARK  156  A    between atoms: _390  and  _393
REMARK  157  A    between atoms: _396  and  _398
REMARK  158  A    between atoms: _398  and  _399
REMARK  159  A    between atoms: _402  and  _404
REMARK  160  A    between atoms: _404  and  _405
REMARK  161  A    between atoms: _404  and  _407
REMARK  162  A    between atoms: _407  and  _408
REMARK  163  A    between atoms: _413  and  _415
REMARK  164  A    between atoms: _415  and  _416
REMARK  165  A    between atoms: _415  and  _418
REMARK  166  A    between atoms: _418  and  _419
REMARK  167  A    between atoms: _419  and  _420
REMARK  168  A    between atoms: _420  and  _421
REMARK  169  A    between atoms: _421  and  _422
REMARK  170  A    between atoms: _426  and  _428
REMARK  171  A    between atoms: _428  and  _429
REMARK  172  A    between atoms: _428  and  _431
REMARK  173  A    between atoms: _431  and  _432
REMARK  174  A    between atoms: _435  and  _437
REMARK  175  A    between atoms: _437  and  _438
REMARK  176  A    between atoms: _437  and  _440
REMARK  177  A    between atoms: _440  and  _441
REMARK  178  A    between atoms: _446  and  _448
REMARK  179  A    between atoms: _448  and  _449
REMARK  180  A    between atoms: _451  and  _453
REMARK  181  A    between atoms: _453  and  _454
REMARK  182  A    between atoms: _453  and  _456
REMARK  183  A    between atoms: _456  and  _457
REMARK  184  A    between atoms: _457  and  _458
REMARK  185  A    between atoms: _458  and  _459
REMARK  186  A    between atoms: _459  and  _460
REMARK  187  A    between atoms: _464  and  _466
REMARK  188  A    between atoms: _466  and  _467
REMARK  189  A    between atoms: _466  and  _469
REMARK  190  A    between atoms: _469  and  _470
REMARK  191  A    between atoms: _470  and  _471
REMARK  192  A    between atoms: _471  and  _472
REMARK  193  A    between atoms: _481  and  _483
REMARK  194  A    between atoms: _483  and  _484
REMARK  195  A    between atoms: _483  and  _486
REMARK  196  A    between atoms: _486  and  _487
REMARK  197  A    between atoms: _492  and  _494
REMARK  198  A    between atoms: _494  and  _495
REMARK  199  A    between atoms: _494  and  _497
REMARK  200  A    between atoms: _497  and  _498
REMARK  201  A    between atoms: _503  and  _504
REMARK  202  A    between atoms: _506  and  _508
REMARK  203  A    between atoms: _508  and  _509
REMARK  204  A    between atoms: _508  and  _511
REMARK  205  A    between atoms: _511  and  _512
REMARK  206  A    between atoms: _512  and  _513
REMARK  207  A    between atoms: _513  and  _514
REMARK  208  A    between atoms: _514  and  _515
REMARK  209  A    between atoms: _519  and  _521
REMARK  210  A    between atoms: _521  and  _522
REMARK  211  A    between atoms: _521  and  _524
REMARK  212  A    between atoms: _524  and  _525
REMARK  213  A    between atoms: _527  and  _529
REMARK  214  A    between atoms: _529  and  _530
REMARK  215  A    between atoms: _529  and  _532
REMARK  216  A    between atoms: _532  and  _533
REMARK  217  A    between atoms: _536  and  _538
REMARK  218  A    between atoms: _538  and  _539
REMARK  219  A    between atoms: _538  and  _541
REMARK  220  A    between atoms: _541  and  _542
REMARK  221  A    between atoms: _542  and  _543
REMARK  222  A    between atoms: _546  and  _548
REMARK  223  A    between atoms: _548  and  _549
REMARK  224  A    between atoms: _552  and  _554
REMARK  225  A    between atoms: _554  and  _555
REMARK  226  A    between atoms: _554  and  _557
REMARK  227  A    between atoms: _557  and  _558
REMARK  228  A    between atoms: _560  and  _562
REMARK  229  A    between atoms: _562  and  _563
REMARK  230  A    between atoms: _565  and  _567
REMARK  231  A    between atoms: _567  and  _568
REMARK  232  A    between atoms: _567  and  _570
REMARK  233  A    between atoms: _570  and  _571
REMARK  234  A    between atoms: _574  and  _576
REMARK  235  A    between atoms: _576  and  _577
REMARK  236  A    between atoms: _579  and  _581
REMARK  237  A    between atoms: _581  and  _582
REMARK  238  A    between atoms: _581  and  _584
REMARK  239  A    between atoms: _584  and  _585
REMARK  240  A    between atoms: _590  and  _592
REMARK  241  A    between atoms: _592  and  _593
REMARK  242  A    between atoms: _592  and  _595
REMARK  243  A    between atoms: _595  and  _596
REMARK  244  A    between atoms: _596  and  _597
REMARK  245  A    between atoms: _604  and  _605
REMARK  246  A    between atoms: _605  and  _621
REMARK  247  A    between atoms: _606  and  _608
REMARK  248  A    between atoms: _608  and  _609
REMARK  249  A    between atoms: _609  and  _610
REMARK  250  A    between atoms: _614  and  _616
REMARK  251  A    between atoms: _616  and  _617
REMARK  252  A    between atoms: _616  and  _624
REMARK  253  A    between atoms: _617  and  _618
REMARK  254  A    between atoms: _618  and  _619
REMARK  255  A    between atoms: _619  and  _620
REMARK  256  A    between atoms: _620  and  _621
REMARK  257  A    between atoms: _626  and  _628
REMARK  258  A    between atoms: _628  and  _629
REMARK  259  A    between atoms: _628  and  _631
REMARK  260  A    between atoms: _631  and  _632
REMARK  261  A    between atoms: _635  and  _637
REMARK  262  A    between atoms: _637  and  _638
REMARK  263  A    between atoms: _640  and  _642
REMARK  264  A    between atoms: _642  and  _643
REMARK  265  A    between atoms: _646  and  _648
REMARK  266  A    between atoms: _648  and  _649
REMARK  267  A    between atoms: _648  and  _651
REMARK  268  A    between atoms: _651  and  _652
REMARK  269  A    between atoms: _657  and  _658
REMARK                            x       y       z     vdW  Elec       q    Type
REMARK                         _______ _______ _______ _____ _____    ______ ____
ROOT
ATOM      1  O   HOH     1      40.556  25.655  36.752  0.00  0.00    +0.000 OA
ENDROOT
TORSDOF 0
REMARK  Name = ../refined-set-2016/2qrp/2qrp_pocket.pdb
REMARK  269 active torsions:
REMARK  status: ('A' for Active; 'I' for Inactive)
REMARK    1  A    between atoms: _1  and  _3
REMARK    2  A    between atoms: _3  and  _4
REMARK    3  A    between atoms: _3  and  _6
REMARK    4  A    between atoms: _6  and  _7
REMARK    5  A    between atoms: _12  and  _13
REMARK    6  A    between atoms: _15  and  _17
REMARK    7  A    between atoms: _17  and  _18
REMARK    8  A    between atoms: _17  and  _20
REMARK    9  A    between atoms: _20  and  _21
REMARK   10  A    between atoms: _24  and  _26
REMARK   11  A    between atoms: _26  and  _27
REMARK   12  A    between atoms: _26  and  _29
REMARK   13  A    between atoms: _29  and  _30
REMARK   14  A    between atoms: _30  and  _31
REMARK   15  A    between atoms: _34  and  _36
REMARK   16  A    between atoms: _36  and  _37
REMARK   17  A    between atoms: _39  and  _41
REMARK   18  A    between atoms: _41  and  _42
REMARK   19  A    between atoms: _41  and  _44
REMARK   20  A    between atoms: _44  and  _45
REMARK   21  A    between atoms: _50  and  _52
REMARK   22  A    between atoms: _52  and  _53
REMARK   23  A    between atoms: _55  and  _57
REMARK   24  A    between atoms: _57  and  _58
REMARK   25  A    between atoms: _60  and  _62
REMARK   26  A    between atoms: _62  and  _63
REMARK   27  A    between atoms: _62  and  _65
REMARK   28  A    between atoms: _65  and  _66
REMARK   29  A    between atoms: _69  and  _71
REMARK   30  A    between atoms: _71  and  _72
REMARK   31  A    between atoms: _74  and  _76
REMARK   32  A    between atoms: _76  and  _77
REMARK   33  A    between atoms: _76  and  _79
REMARK   34  A    between atoms: _79  and  _80
REMARK   35  A    between atoms: _80  and  _81
REMARK   36  A    between atoms: _81  and  _82
REMARK   37  A    between atoms: _91  and  _93
REMARK   38  A    between atoms: _93  and  _94
REMARK   39  A    between atoms: _93  and  _96
REMARK   40  A    between atoms: _96  and  _97
REMARK   41  A    between atoms: _100  and  _102
REMARK   42  A    between atoms: _102  and  _103
REMARK   43  A    between atoms: _106  and  _108
REMARK   44  A    between atoms: _108  and  _109
REMARK   45  A    between atoms: _108  and  _111
REMARK   46  A    between atoms: _111  and  _112
REMARK   47  A    between atoms: _118  and  _120
REMARK   48  A    between atoms: _120  and  _121
REMARK   49  A    between atoms: _120  and  _123
REMARK   50  A    between atoms: _123  and  _124
REMARK   51  A    between atoms: _127  and  _129
REMARK   52  A    between atoms: _129  and  _130
REMARK   53  A    between atoms: _129  and  _132
REMARK   54  A    between atoms: _132  and  _133
REMARK   55  A    between atoms: _138  and  _139
REMARK   56  A    between atoms: _142  and  _143
REMARK   57  A    between atoms: _148  and  _150
REMARK   58  A    between atoms: _150  and  _151
REMARK   59  A    between atoms: _150  and  _153
REMARK   60  A    between atoms: _153  and  _154
REMARK   61  A    between atoms: _159  and  _161
REMARK   62  A    between atoms: _161  and  _162
REMARK   63  A    between atoms: _161  and  _164
REMARK   64  A    between atoms: _164  and  _165
REMARK   65  A    between atoms: _168  and  _170
REMARK   66  A    between atoms: _170  and  _171
REMARK   67  A    between atoms: _170  and  _173
REMARK   68  A    between atoms: _173  and  _174
REMARK   69  A    between atoms: _179  and  _181
REMARK   70  A    between atoms: _181  and  _182
REMARK   71  A    between atoms: _181  and  _184
REMARK   72  A    between atoms: _184  and  _185
REMARK   73  A    between atoms: _191  and  _193
REMARK   74  A    between atoms: _193  and  _194
REMARK   75  A    between atoms: _193  and  _196
REMARK   76  A    between atoms: _196  and  _197
REMARK   77  A    between atoms: _203  and  _205
REMARK   78  A    between atoms: _205  and  _206
REMARK   79  A    between atoms: _205  and  _208
REMARK   80  A    between atoms: _208  and  _209
REMARK   81  A    between atoms: _209  and  _210
REMARK   82  A    between atoms: _213  and  _215
REMARK   83  A    between atoms: _215  and  _216
REMARK   84  A    between atoms: _215  and  _218
REMARK   85  A    between atoms: _218  and  _219
REMARK   86  A    between atoms: _219  and  _220
REMARK   87  A    between atoms: _220  and  _221
REMARK   88  A    between atoms: _230  and  _232
REMARK   89  A    between atoms: _232  and  _233
REMARK   90  A    between atoms: _232  and  _235
REMARK   91  A    between atoms: _235  and  _236
REMARK   92  A    between atoms: _236  and  _237
REMARK   93  A    between atoms: _240  and  _242
REMARK   94  A    between atoms: _242  and  _243
REMARK   95  A    between atoms: _242  and  _245
REMARK   96  A    between atoms: _245  and  _246
REMARK   97  A    between atoms: _251  and  _253
REMARK   98  A    between atoms: _253  and  _254
REMARK   99  A    between atoms: _253  and  _256
REMARK  100  A    between atoms: _256  and  _257
REMARK  101  A    between atoms: _260  and  _262
REMARK  102  A    between atoms: _262  and  _263
REMARK  103  A    between atoms: _262  and  _265
REMARK  104  A    between atoms: _265  and  _266
REMARK  105  A    between atoms: _269  and  _271
REMARK  106  A    between atoms: _271  and  _272
REMARK  107  A    between atoms: _271  and  _274
REMARK  108  A    between atoms: _274  and  _275
REMARK  109  A    between atoms: _280  and  _282
REMARK  110  A    between atoms: _282  and  _283
REMARK  111  A    between atoms: _282  and  _285
REMARK  112  A    between atoms: _285  and  _286
REMARK  113  A    between atoms: _289  and  _291
REMARK  114  A    between atoms: _291  and  _292
REMARK  115  A    between atoms: _291  and  _294
REMARK  116  A    between atoms: _294  and  _295
REMARK  117  A    between atoms: _300  and  _302
REMARK  118  A    between atoms: _302  and  _303
REMARK  119  A    between atoms: _302  and  _305
REMARK  120  A    between atoms: _305  and  _306
REMARK  121  A    between atoms: _311  and  _313
REMARK  122  A    between atoms: _313  and  _314
REMARK  123  A    between atoms: _313  and  _316
REMARK  124  A    between atoms: _316  and  _317
REMARK  125  A    between atoms: _320  and  _322
REMARK  126  A    between atoms: _322  and  _323
REMARK  127  A    between atoms: _322  and  _325
REMARK  128  A    between atoms: _328  and  _330
REMARK  129  A    between atoms: _330  and  _331
REMARK  130  A    between atoms: _330  and  _333
REMARK  131  A    between atoms: _333  and  _334
REMARK  132  A    between atoms: _337  and  _339
REMARK  133  A    between atoms: _339  and  _340
REMARK  134  A    between atoms: _339  and  _342
REMARK  135  A    between atoms: _342  and  _343
REMARK  136  A    between atoms: _343  and  _344
REMARK  137  A    between atoms: _347  and  _349
REMARK  138  A    between atoms: _349  and  _350
REMARK  139  A    between atoms: _353  and  _355
REMARK  140  A    between atoms: _355  and  _356
REMARK  141  A    between atoms: _355  and  _358
REMARK  142  A    between atoms: _358  and  _359
REMARK  143  A    between atoms: _362  and  _364
REMARK  144  A    between atoms: _364  and  _365
REMARK  145  A    between atoms: _364  and  _367
REMARK  146  A    between atoms: _367  and  _368
REMARK  147  A    between atoms: _368  and  _369
REMARK  148  A    between atoms: _372  and  _374
REMARK  149  A    between atoms: _374  and  _375
REMARK  150  A    between atoms: _374  and  _377
REMARK  151  A    between atoms: _377  and  _378
REMARK  152  A    between atoms: _383  and  _385
REMARK  153  A    between atoms: _385  and  _386
REMARK  154  A    between atoms: _388  and  _390
REMARK  155  A    between atoms: _390  and  _391
REMARK  156  A    between atoms: _390  and  _393
REMARK  157  A    between atoms: _396  and  _398
REMARK  158  A    between atoms: _398  and  _399
REMARK  159  A    between atoms: _402  and  _404
REMARK  160  A    between atoms: _404  and  _405
REMARK  161  A    between atoms: _404  and  _407
REMARK  162  A    between atoms: _407  and  _408
REMARK  163  A    between atoms: _413  and  _415
REMARK  164  A    between atoms: _415  and  _416
REMARK  165  A    between atoms: _415  and  _418
REMARK  166  A    between atoms: _418  and  _419
REMARK  167  A    between atoms: _419  and  _420
REMARK  168  A    between atoms: _420  and  _421
REMARK  169  A    between atoms: _421  and  _422
REMARK  170  A    between atoms: _426  and  _428
REMARK  171  A    between atoms: _428  and  _429
REMARK  172  A    between atoms: _428  and  _431
REMARK  173  A    between atoms: _431  and  _432
REMARK  174  A    between atoms: _435  and  _437
REMARK  175  A    between atoms: _437  and  _438
REMARK  176  A    between atoms: _437  and  _440
REMARK  177  A    between atoms: _440  and  _441
REMARK  178  A    between atoms: _446  and  _448
REMARK  179  A    between atoms: _448  and  _449
REMARK  180  A    between atoms: _451  and  _453
REMARK  181  A    between atoms: _453  and  _454
REMARK  182  A    between atoms: _453  and  _456
REMARK  183  A    between atoms: _456  and  _457
REMARK  184  A    between atoms: _457  and  _458
REMARK  185  A    between atoms: _458  and  _459
REMARK  186  A    between atoms: _459  and  _460
REMARK  187  A    between atoms: _464  and  _466
REMARK  188  A    between atoms: _466  and  _467
REMARK  189  A    between atoms: _466  and  _469
REMARK  190  A    between atoms: _469  and  _470
REMARK  191  A    between atoms: _470  and  _471
REMARK  192  A    between atoms: _471  and  _472
REMARK  193  A    between atoms: _481  and  _483
REMARK  194  A    between atoms: _483  and  _484
REMARK  195  A    between atoms: _483  and  _486
REMARK  196  A    between atoms: _486  and  _487
REMARK  197  A    between atoms: _492  and  _494
REMARK  198  A    between atoms: _494  and  _495
REMARK  199  A    between atoms: _494  and  _497
REMARK  200  A    between atoms: _497  and  _498
REMARK  201  A    between atoms: _503  and  _504
REMARK  202  A    between atoms: _506  and  _508
REMARK  203  A    between atoms: _508  and  _509
REMARK  204  A    between atoms: _508  and  _511
REMARK  205  A    between atoms: _511  and  _512
REMARK  206  A    between atoms: _512  and  _513
REMARK  207  A    between atoms: _513  and  _514
REMARK  208  A    between atoms: _514  and  _515
REMARK  209  A    between atoms: _519  and  _521
REMARK  210  A    between atoms: _521  and  _522
REMARK  211  A    between atoms: _521  and  _524
REMARK  212  A    between atoms: _524  and  _525
REMARK  213  A    between atoms: _527  and  _529
REMARK  214  A    between atoms: _529  and  _530
REMARK  215  A    between atoms: _529  and  _532
REMARK  216  A    between atoms: _532  and  _533
REMARK  217  A    between atoms: _536  and  _538
REMARK  218  A    between atoms: _538  and  _539
REMARK  219  A    between atoms: _538  and  _541
REMARK  220  A    between atoms: _541  and  _542
REMARK  221  A    between atoms: _542  and  _543
REMARK  222  A    between atoms: _546  and  _548
REMARK  223  A    between atoms: _548  and  _549
REMARK  224  A    between atoms: _552  and  _554
REMARK  225  A    between atoms: _554  and  _555
REMARK  226  A    between atoms: _554  and  _557
REMARK  227  A    between atoms: _557  and  _558
REMARK  228  A    between atoms: _560  and  _562
REMARK  229  A    between atoms: _562  and  _563
REMARK  230  A    between atoms: _565  and  _567
REMARK  231  A    between atoms: _567  and  _568
REMARK  232  A    between atoms: _567  and  _570
REMARK  233  A    between atoms: _570  and  _571
REMARK  234  A    between atoms: _574  and  _576
REMARK  235  A    between atoms: _576  and  _577
REMARK  236  A    between atoms: _579  and  _581
REMARK  237  A    between atoms: _581  and  _582
REMARK  238  A    between atoms: _581  and  _584
REMARK  239  A    between atoms: _584  and  _585
REMARK  240  A    between atoms: _590  and  _592
REMARK  241  A    between atoms: _592  and  _593
REMARK  242  A    between atoms: _592  and  _595
REMARK  243  A    between atoms: _595  and  _596
REMARK  244  A    between atoms: _596  and  _597
REMARK  245  A    between atoms: _604  and  _605
REMARK  246  A    between atoms: _605  and  _621
REMARK  247  A    between atoms: _606  and  _608
REMARK  248  A    between atoms: _608  and  _609
REMARK  249  A    between atoms: _609  and  _610
REMARK  250  A    between atoms: _614  and  _616
REMARK  251  A    between atoms: _616  and  _617
REMARK  252  A    between atoms: _616  and  _624
REMARK  253  A    between atoms: _617  and  _618
REMARK  254  A    between atoms: _618  and  _619
REMARK  255  A    between atoms: _619  and  _620
REMARK  256  A    between atoms: _620  and  _621
REMARK  257  A    between atoms: _626  and  _628
REMARK  258  A    between atoms: _628  and  _629
REMARK  259  A    between atoms: _628  and  _631
REMARK  260  A    between atoms: _631  and  _632
REMARK  261  A    between atoms: _635  and  _637
REMARK  262  A    between atoms: _637  and  _638
REMARK  263  A    between atoms: _640  and  _642
REMARK  264  A    between atoms: _642  and  _643
REMARK  265  A    between atoms: _646  and  _648
REMARK  266  A    between atoms: _648  and  _649
REMARK  267  A    between atoms: _648  and  _651
REMARK  268  A    between atoms: _651  and  _652
REMARK  269  A    between atoms: _657  and  _658
REMARK                            x       y       z     vdW  Elec       q    Type
REMARK                         _______ _______ _______ _____ _____    ______ ____
ROOT
ATOM      1  O   HOH     1      38.101  29.070  36.466  0.00  0.00    +0.000 OA
ENDROOT
TORSDOF 0
REMARK  Name = ../refined-set-2016/2qrp/2qrp_pocket.pdb
REMARK  269 active torsions:
REMARK  status: ('A' for Active; 'I' for Inactive)
REMARK    1  A    between atoms: _1  and  _3
REMARK    2  A    between atoms: _3  and  _4
REMARK    3  A    between atoms: _3  and  _6
REMARK    4  A    between atoms: _6  and  _7
REMARK    5  A    between atoms: _12  and  _13
REMARK    6  A    between atoms: _15  and  _17
REMARK    7  A    between atoms: _17  and  _18
REMARK    8  A    between atoms: _17  and  _20
REMARK    9  A    between atoms: _20  and  _21
REMARK   10  A    between atoms: _24  and  _26
REMARK   11  A    between atoms: _26  and  _27
REMARK   12  A    between atoms: _26  and  _29
REMARK   13  A    between atoms: _29  and  _30
REMARK   14  A    between atoms: _30  and  _31
REMARK   15  A    between atoms: _34  and  _36
REMARK   16  A    between atoms: _36  and  _37
REMARK   17  A    between atoms: _39  and  _41
REMARK   18  A    between atoms: _41  and  _42
REMARK   19  A    between atoms: _41  and  _44
REMARK   20  A    between atoms: _44  and  _45
REMARK   21  A    between atoms: _50  and  _52
REMARK   22  A    between atoms: _52  and  _53
REMARK   23  A    between atoms: _55  and  _57
REMARK   24  A    between atoms: _57  and  _58
REMARK   25  A    between atoms: _60  and  _62
REMARK   26  A    between atoms: _62  and  _63
REMARK   27  A    between atoms: _62  and  _65
REMARK   28  A    between atoms: _65  and  _66
REMARK   29  A    between atoms: _69  and  _71
REMARK   30  A    between atoms: _71  and  _72
REMARK   31  A    between atoms: _74  and  _76
REMARK   32  A    between atoms: _76  and  _77
REMARK   33  A    between atoms: _76  and  _79
REMARK   34  A    between atoms: _79  and  _80
REMARK   35  A    between atoms: _80  and  _81
REMARK   36  A    between atoms: _81  and  _82
REMARK   37  A    between atoms: _91  and  _93
REMARK   38  A    between atoms: _93  and  _94
REMARK   39  A    between atoms: _93  and  _96
REMARK   40  A    between atoms: _96  and  _97
REMARK   41  A    between atoms: _100  and  _102
REMARK   42  A    between atoms: _102  and  _103
REMARK   43  A    between atoms: _106  and  _108
REMARK   44  A    between atoms: _108  and  _109
REMARK   45  A    between atoms: _108  and  _111
REMARK   46  A    between atoms: _111  and  _112
REMARK   47  A    between atoms: _118  and  _120
REMARK   48  A    between atoms: _120  and  _121
REMARK   49  A    between atoms: _120  and  _123
REMARK   50  A    between atoms: _123  and  _124
REMARK   51  A    between atoms: _127  and  _129
REMARK   52  A    between atoms: _129  and  _130
REMARK   53  A    between atoms: _129  and  _132
REMARK   54  A    between atoms: _132  and  _133
REMARK   55  A    between atoms: _138  and  _139
REMARK   56  A    between atoms: _142  and  _143
REMARK   57  A    between atoms: _148  and  _150
REMARK   58  A    between atoms: _150  and  _151
REMARK   59  A    between atoms: _150  and  _153
REMARK   60  A    between atoms: _153  and  _154
REMARK   61  A    between atoms: _159  and  _161
REMARK   62  A    between atoms: _161  and  _162
REMARK   63  A    between atoms: _161  and  _164
REMARK   64  A    between atoms: _164  and  _165
REMARK   65  A    between atoms: _168  and  _170
REMARK   66  A    between atoms: _170  and  _171
REMARK   67  A    between atoms: _170  and  _173
REMARK   68  A    between atoms: _173  and  _174
REMARK   69  A    between atoms: _179  and  _181
REMARK   70  A    between atoms: _181  and  _182
REMARK   71  A    between atoms: _181  and  _184
REMARK   72  A    between atoms: _184  and  _185
REMARK   73  A    between atoms: _191  and  _193
REMARK   74  A    between atoms: _193  and  _194
REMARK   75  A    between atoms: _193  and  _196
REMARK   76  A    between atoms: _196  and  _197
REMARK   77  A    between atoms: _203  and  _205
REMARK   78  A    between atoms: _205  and  _206
REMARK   79  A    between atoms: _205  and  _208
REMARK   80  A    between atoms: _208  and  _209
REMARK   81  A    between atoms: _209  and  _210
REMARK   82  A    between atoms: _213  and  _215
REMARK   83  A    between atoms: _215  and  _216
REMARK   84  A    between atoms: _215  and  _218
REMARK   85  A    between atoms: _218  and  _219
REMARK   86  A    between atoms: _219  and  _220
REMARK   87  A    between atoms: _220  and  _221
REMARK   88  A    between atoms: _230  and  _232
REMARK   89  A    between atoms: _232  and  _233
REMARK   90  A    between atoms: _232  and  _235
REMARK   91  A    between atoms: _235  and  _236
REMARK   92  A    between atoms: _236  and  _237
REMARK   93  A    between atoms: _240  and  _242
REMARK   94  A    between atoms: _242  and  _243
REMARK   95  A    between atoms: _242  and  _245
REMARK   96  A    between atoms: _245  and  _246
REMARK   97  A    between atoms: _251  and  _253
REMARK   98  A    between atoms: _253  and  _254
REMARK   99  A    between atoms: _253  and  _256
REMARK  100  A    between atoms: _256  and  _257
REMARK  101  A    between atoms: _260  and  _262
REMARK  102  A    between atoms: _262  and  _263
REMARK  103  A    between atoms: _262  and  _265
REMARK  104  A    between atoms: _265  and  _266
REMARK  105  A    between atoms: _269  and  _271
REMARK  106  A    between atoms: _271  and  _272
REMARK  107  A    between atoms: _271  and  _274
REMARK  108  A    between atoms: _274  and  _275
REMARK  109  A    between atoms: _280  and  _282
REMARK  110  A    between atoms: _282  and  _283
REMARK  111  A    between atoms: _282  and  _285
REMARK  112  A    between atoms: _285  and  _286
REMARK  113  A    between atoms: _289  and  _291
REMARK  114  A    between atoms: _291  and  _292
REMARK  115  A    between atoms: _291  and  _294
REMARK  116  A    between atoms: _294  and  _295
REMARK  117  A    between atoms: _300  and  _302
REMARK  118  A    between atoms: _302  and  _303
REMARK  119  A    between atoms: _302  and  _305
REMARK  120  A    between atoms: _305  and  _306
REMARK  121  A    between atoms: _311  and  _313
REMARK  122  A    between atoms: _313  and  _314
REMARK  123  A    between atoms: _313  and  _316
REMARK  124  A    between atoms: _316  and  _317
REMARK  125  A    between atoms: _320  and  _322
REMARK  126  A    between atoms: _322  and  _323
REMARK  127  A    between atoms: _322  and  _325
REMARK  128  A    between atoms: _328  and  _330
REMARK  129  A    between atoms: _330  and  _331
REMARK  130  A    between atoms: _330  and  _333
REMARK  131  A    between atoms: _333  and  _334
REMARK  132  A    between atoms: _337  and  _339
REMARK  133  A    between atoms: _339  and  _340
REMARK  134  A    between atoms: _339  and  _342
REMARK  135  A    between atoms: _342  and  _343
REMARK  136  A    between atoms: _343  and  _344
REMARK  137  A    between atoms: _347  and  _349
REMARK  138  A    between atoms: _349  and  _350
REMARK  139  A    between atoms: _353  and  _355
REMARK  140  A    between atoms: _355  and  _356
REMARK  141  A    between atoms: _355  and  _358
REMARK  142  A    between atoms: _358  and  _359
REMARK  143  A    between atoms: _362  and  _364
REMARK  144  A    between atoms: _364  and  _365
REMARK  145  A    between atoms: _364  and  _367
REMARK  146  A    between atoms: _367  and  _368
REMARK  147  A    between atoms: _368  and  _369
REMARK  148  A    between atoms: _372  and  _374
REMARK  149  A    between atoms: _374  and  _375
REMARK  150  A    between atoms: _374  and  _377
REMARK  151  A    between atoms: _377  and  _378
REMARK  152  A    between atoms: _383  and  _385
REMARK  153  A    between atoms: _385  and  _386
REMARK  154  A    between atoms: _388  and  _390
REMARK  155  A    between atoms: _390  and  _391
REMARK  156  A    between atoms: _390  and  _393
REMARK  157  A    between atoms: _396  and  _398
REMARK  158  A    between atoms: _398  and  _399
REMARK  159  A    between atoms: _402  and  _404
REMARK  160  A    between atoms: _404  and  _405
REMARK  161  A    between atoms: _404  and  _407
REMARK  162  A    between atoms: _407  and  _408
REMARK  163  A    between atoms: _413  and  _415
REMARK  164  A    between atoms: _415  and  _416
REMARK  165  A    between atoms: _415  and  _418
REMARK  166  A    between atoms: _418  and  _419
REMARK  167  A    between atoms: _419  and  _420
REMARK  168  A    between atoms: _420  and  _421
REMARK  169  A    between atoms: _421  and  _422
REMARK  170  A    between atoms: _426  and  _428
REMARK  171  A    between atoms: _428  and  _429
REMARK  172  A    between atoms: _428  and  _431
REMARK  173  A    between atoms: _431  and  _432
REMARK  174  A    between atoms: _435  and  _437
REMARK  175  A    between atoms: _437  and  _438
REMARK  176  A    between atoms: _437  and  _440
REMARK  177  A    between atoms: _440  and  _441
REMARK  178  A    between atoms: _446  and  _448
REMARK  179  A    between atoms: _448  and  _449
REMARK  180  A    between atoms: _451  and  _453
REMARK  181  A    between atoms: _453  and  _454
REMARK  182  A    between atoms: _453  and  _456
REMARK  183  A    between atoms: _456  and  _457
REMARK  184  A    between atoms: _457  and  _458
REMARK  185  A    between atoms: _458  and  _459
REMARK  186  A    between atoms: _459  and  _460
REMARK  187  A    between atoms: _464  and  _466
REMARK  188  A    between atoms: _466  and  _467
REMARK  189  A    between atoms: _466  and  _469
REMARK  190  A    between atoms: _469  and  _470
REMARK  191  A    between atoms: _470  and  _471
REMARK  192  A    between atoms: _471  and  _472
REMARK  193  A    between atoms: _481  and  _483
REMARK  194  A    between atoms: _483  and  _484
REMARK  195  A    between atoms: _483  and  _486
REMARK  196  A    between atoms: _486  and  _487
REMARK  197  A    between atoms: _492  and  _494
REMARK  198  A    between atoms: _494  and  _495
REMARK  199  A    between atoms: _494  and  _497
REMARK  200  A    between atoms: _497  and  _498
REMARK  201  A    between atoms: _503  and  _504
REMARK  202  A    between atoms: _506  and  _508
REMARK  203  A    between atoms: _508  and  _509
REMARK  204  A    between atoms: _508  and  _511
REMARK  205  A    between atoms: _511  and  _512
REMARK  206  A    between atoms: _512  and  _513
REMARK  207  A    between atoms: _513  and  _514
REMARK  208  A    between atoms: _514  and  _515
REMARK  209  A    between atoms: _519  and  _521
REMARK  210  A    between atoms: _521  and  _522
REMARK  211  A    between atoms: _521  and  _524
REMARK  212  A    between atoms: _524  and  _525
REMARK  213  A    between atoms: _527  and  _529
REMARK  214  A    between atoms: _529  and  _530
REMARK  215  A    between atoms: _529  and  _532
REMARK  216  A    between atoms: _532  and  _533
REMARK  217  A    between atoms: _536  and  _538
REMARK  218  A    between atoms: _538  and  _539
REMARK  219  A    between atoms: _538  and  _541
REMARK  220  A    between atoms: _541  and  _542
REMARK  221  A    between atoms: _542  and  _543
REMARK  222  A    between atoms: _546  and  _548
REMARK  223  A    between atoms: _548  and  _549
REMARK  224  A    between atoms: _552  and  _554
REMARK  225  A    between atoms: _554  and  _555
REMARK  226  A    between atoms: _554  and  _557
REMARK  227  A    between atoms: _557  and  _558
REMARK  228  A    between atoms: _560  and  _562
REMARK  229  A    between atoms: _562  and  _563
REMARK  230  A    between atoms: _565  and  _567
REMARK  231  A    between atoms: _567  and  _568
REMARK  232  A    between atoms: _567  and  _570
REMARK  233  A    between atoms: _570  and  _571
REMARK  234  A    between atoms: _574  and  _576
REMARK  235  A    between atoms: _576  and  _577
REMARK  236  A    between atoms: _579  and  _581
REMARK  237  A    between atoms: _581  and  _582
REMARK  238  A    between atoms: _581  and  _584
REMARK  239  A    between atoms: _584  and  _585
REMARK  240  A    between atoms: _590  and  _592
REMARK  241  A    between atoms: _592  and  _593
REMARK  242  A    between atoms: _592  and  _595
REMARK  243  A    between atoms: _595  and  _596
REMARK  244  A    between atoms: _596  and  _597
REMARK  245  A    between atoms: _604  and  _605
REMARK  246  A    between atoms: _605  and  _621
REMARK  247  A    between atoms: _606  and  _608
REMARK  248  A    between atoms: _608  and  _609
REMARK  249  A    between atoms: _609  and  _610
REMARK  250  A    between atoms: _614  and  _616
REMARK  251  A    between atoms: _616  and  _617
REMARK  252  A    between atoms: _616  and  _624
REMARK  253  A    between atoms: _617  and  _618
REMARK  254  A    between atoms: _618  and  _619
REMARK  255  A    between atoms: _619  and  _620
REMARK  256  A    between atoms: _620  and  _621
REMARK  257  A    between atoms: _626  and  _628
REMARK  258  A    between atoms: _628  and  _629
REMARK  259  A    between atoms: _628  and  _631
REMARK  260  A    between atoms: _631  and  _632
REMARK  261  A    between atoms: _635  and  _637
REMARK  262  A    between atoms: _637  and  _638
REMARK  263  A    between atoms: _640  and  _642
REMARK  264  A    between atoms: _642  and  _643
REMARK  265  A    between atoms: _646  and  _648
REMARK  266  A    between atoms: _648  and  _649
REMARK  267  A    between atoms: _648  and  _651
REMARK  268  A    between atoms: _651  and  _652
REMARK  269  A    between atoms: _657  and  _658
REMARK                            x       y       z     vdW  Elec       q    Type
REMARK                         _______ _______ _______ _____ _____    ______ ____
ROOT
ATOM      1  O   HOH     1      33.883  32.657  30.880  0.00  0.00    +0.000 OA
ENDROOT
TORSDOF 0
REMARK  Name = ../refined-set-2016/2qrp/2qrp_pocket.pdb
REMARK  269 active torsions:
REMARK  status: ('A' for Active; 'I' for Inactive)
REMARK    1  A    between atoms: _1  and  _3
REMARK    2  A    between atoms: _3  and  _4
REMARK    3  A    between atoms: _3  and  _6
REMARK    4  A    between atoms: _6  and  _7
REMARK    5  A    between atoms: _12  and  _13
REMARK    6  A    between atoms: _15  and  _17
REMARK    7  A    between atoms: _17  and  _18
REMARK    8  A    between atoms: _17  and  _20
REMARK    9  A    between atoms: _20  and  _21
REMARK   10  A    between atoms: _24  and  _26
REMARK   11  A    between atoms: _26  and  _27
REMARK   12  A    between atoms: _26  and  _29
REMARK   13  A    between atoms: _29  and  _30
REMARK   14  A    between atoms: _30  and  _31
REMARK   15  A    between atoms: _34  and  _36
REMARK   16  A    between atoms: _36  and  _37
REMARK   17  A    between atoms: _39  and  _41
REMARK   18  A    between atoms: _41  and  _42
REMARK   19  A    between atoms: _41  and  _44
REMARK   20  A    between atoms: _44  and  _45
REMARK   21  A    between atoms: _50  and  _52
REMARK   22  A    between atoms: _52  and  _53
REMARK   23  A    between atoms: _55  and  _57
REMARK   24  A    between atoms: _57  and  _58
REMARK   25  A    between atoms: _60  and  _62
REMARK   26  A    between atoms: _62  and  _63
REMARK   27  A    between atoms: _62  and  _65
REMARK   28  A    between atoms: _65  and  _66
REMARK   29  A    between atoms: _69  and  _71
REMARK   30  A    between atoms: _71  and  _72
REMARK   31  A    between atoms: _74  and  _76
REMARK   32  A    between atoms: _76  and  _77
REMARK   33  A    between atoms: _76  and  _79
REMARK   34  A    between atoms: _79  and  _80
REMARK   35  A    between atoms: _80  and  _81
REMARK   36  A    between atoms: _81  and  _82
REMARK   37  A    between atoms: _91  and  _93
REMARK   38  A    between atoms: _93  and  _94
REMARK   39  A    between atoms: _93  and  _96
REMARK   40  A    between atoms: _96  and  _97
REMARK   41  A    between atoms: _100  and  _102
REMARK   42  A    between atoms: _102  and  _103
REMARK   43  A    between atoms: _106  and  _108
REMARK   44  A    between atoms: _108  and  _109
REMARK   45  A    between atoms: _108  and  _111
REMARK   46  A    between atoms: _111  and  _112
REMARK   47  A    between atoms: _118  and  _120
REMARK   48  A    between atoms: _120  and  _121
REMARK   49  A    between atoms: _120  and  _123
REMARK   50  A    between atoms: _123  and  _124
REMARK   51  A    between atoms: _127  and  _129
REMARK   52  A    between atoms: _129  and  _130
REMARK   53  A    between atoms: _129  and  _132
REMARK   54  A    between atoms: _132  and  _133
REMARK   55  A    between atoms: _138  and  _139
REMARK   56  A    between atoms: _142  and  _143
REMARK   57  A    between atoms: _148  and  _150
REMARK   58  A    between atoms: _150  and  _151
REMARK   59  A    between atoms: _150  and  _153
REMARK   60  A    between atoms: _153  and  _154
REMARK   61  A    between atoms: _159  and  _161
REMARK   62  A    between atoms: _161  and  _162
REMARK   63  A    between atoms: _161  and  _164
REMARK   64  A    between atoms: _164  and  _165
REMARK   65  A    between atoms: _168  and  _170
REMARK   66  A    between atoms: _170  and  _171
REMARK   67  A    between atoms: _170  and  _173
REMARK   68  A    between atoms: _173  and  _174
REMARK   69  A    between atoms: _179  and  _181
REMARK   70  A    between atoms: _181  and  _182
REMARK   71  A    between atoms: _181  and  _184
REMARK   72  A    between atoms: _184  and  _185
REMARK   73  A    between atoms: _191  and  _193
REMARK   74  A    between atoms: _193  and  _194
REMARK   75  A    between atoms: _193  and  _196
REMARK   76  A    between atoms: _196  and  _197
REMARK   77  A    between atoms: _203  and  _205
REMARK   78  A    between atoms: _205  and  _206
REMARK   79  A    between atoms: _205  and  _208
REMARK   80  A    between atoms: _208  and  _209
REMARK   81  A    between atoms: _209  and  _210
REMARK   82  A    between atoms: _213  and  _215
REMARK   83  A    between atoms: _215  and  _216
REMARK   84  A    between atoms: _215  and  _218
REMARK   85  A    between atoms: _218  and  _219
REMARK   86  A    between atoms: _219  and  _220
REMARK   87  A    between atoms: _220  and  _221
REMARK   88  A    between atoms: _230  and  _232
REMARK   89  A    between atoms: _232  and  _233
REMARK   90  A    between atoms: _232  and  _235
REMARK   91  A    between atoms: _235  and  _236
REMARK   92  A    between atoms: _236  and  _237
REMARK   93  A    between atoms: _240  and  _242
REMARK   94  A    between atoms: _242  and  _243
REMARK   95  A    between atoms: _242  and  _245
REMARK   96  A    between atoms: _245  and  _246
REMARK   97  A    between atoms: _251  and  _253
REMARK   98  A    between atoms: _253  and  _254
REMARK   99  A    between atoms: _253  and  _256
REMARK  100  A    between atoms: _256  and  _257
REMARK  101  A    between atoms: _260  and  _262
REMARK  102  A    between atoms: _262  and  _263
REMARK  103  A    between atoms: _262  and  _265
REMARK  104  A    between atoms: _265  and  _266
REMARK  105  A    between atoms: _269  and  _271
REMARK  106  A    between atoms: _271  and  _272
REMARK  107  A    between atoms: _271  and  _274
REMARK  108  A    between atoms: _274  and  _275
REMARK  109  A    between atoms: _280  and  _282
REMARK  110  A    between atoms: _282  and  _283
REMARK  111  A    between atoms: _282  and  _285
REMARK  112  A    between atoms: _285  and  _286
REMARK  113  A    between atoms: _289  and  _291
REMARK  114  A    between atoms: _291  and  _292
REMARK  115  A    between atoms: _291  and  _294
REMARK  116  A    between atoms: _294  and  _295
REMARK  117  A    between atoms: _300  and  _302
REMARK  118  A    between atoms: _302  and  _303
REMARK  119  A    between atoms: _302  and  _305
REMARK  120  A    between atoms: _305  and  _306
REMARK  121  A    between atoms: _311  and  _313
REMARK  122  A    between atoms: _313  and  _314
REMARK  123  A    between atoms: _313  and  _316
REMARK  124  A    between atoms: _316  and  _317
REMARK  125  A    between atoms: _320  and  _322
REMARK  126  A    between atoms: _322  and  _323
REMARK  127  A    between atoms: _322  and  _325
REMARK  128  A    between atoms: _328  and  _330
REMARK  129  A    between atoms: _330  and  _331
REMARK  130  A    between atoms: _330  and  _333
REMARK  131  A    between atoms: _333  and  _334
REMARK  132  A    between atoms: _337  and  _339
REMARK  133  A    between atoms: _339  and  _340
REMARK  134  A    between atoms: _339  and  _342
REMARK  135  A    between atoms: _342  and  _343
REMARK  136  A    between atoms: _343  and  _344
REMARK  137  A    between atoms: _347  and  _349
REMARK  138  A    between atoms: _349  and  _350
REMARK  139  A    between atoms: _353  and  _355
REMARK  140  A    between atoms: _355  and  _356
REMARK  141  A    between atoms: _355  and  _358
REMARK  142  A    between atoms: _358  and  _359
REMARK  143  A    between atoms: _362  and  _364
REMARK  144  A    between atoms: _364  and  _365
REMARK  145  A    between atoms: _364  and  _367
REMARK  146  A    between atoms: _367  and  _368
REMARK  147  A    between atoms: _368  and  _369
REMARK  148  A    between atoms: _372  and  _374
REMARK  149  A    between atoms: _374  and  _375
REMARK  150  A    between atoms: _374  and  _377
REMARK  151  A    between atoms: _377  and  _378
REMARK  152  A    between atoms: _383  and  _385
REMARK  153  A    between atoms: _385  and  _386
REMARK  154  A    between atoms: _388  and  _390
REMARK  155  A    between atoms: _390  and  _391
REMARK  156  A    between atoms: _390  and  _393
REMARK  157  A    between atoms: _396  and  _398
REMARK  158  A    between atoms: _398  and  _399
REMARK  159  A    between atoms: _402  and  _404
REMARK  160  A    between atoms: _404  and  _405
REMARK  161  A    between atoms: _404  and  _407
REMARK  162  A    between atoms: _407  and  _408
REMARK  163  A    between atoms: _413  and  _415
REMARK  164  A    between atoms: _415  and  _416
REMARK  165  A    between atoms: _415  and  _418
REMARK  166  A    between atoms: _418  and  _419
REMARK  167  A    between atoms: _419  and  _420
REMARK  168  A    between atoms: _420  and  _421
REMARK  169  A    between atoms: _421  and  _422
REMARK  170  A    between atoms: _426  and  _428
REMARK  171  A    between atoms: _428  and  _429
REMARK  172  A    between atoms: _428  and  _431
REMARK  173  A    between atoms: _431  and  _432
REMARK  174  A    between atoms: _435  and  _437
REMARK  175  A    between atoms: _437  and  _438
REMARK  176  A    between atoms: _437  and  _440
REMARK  177  A    between atoms: _440  and  _441
REMARK  178  A    between atoms: _446  and  _448
REMARK  179  A    between atoms: _448  and  _449
REMARK  180  A    between atoms: _451  and  _453
REMARK  181  A    between atoms: _453  and  _454
REMARK  182  A    between atoms: _453  and  _456
REMARK  183  A    between atoms: _456  and  _457
REMARK  184  A    between atoms: _457  and  _458
REMARK  185  A    between atoms: _458  and  _459
REMARK  186  A    between atoms: _459  and  _460
REMARK  187  A    between atoms: _464  and  _466
REMARK  188  A    between atoms: _466  and  _467
REMARK  189  A    between atoms: _466  and  _469
REMARK  190  A    between atoms: _469  and  _470
REMARK  191  A    between atoms: _470  and  _471
REMARK  192  A    between atoms: _471  and  _472
REMARK  193  A    between atoms: _481  and  _483
REMARK  194  A    between atoms: _483  and  _484
REMARK  195  A    between atoms: _483  and  _486
REMARK  196  A    between atoms: _486  and  _487
REMARK  197  A    between atoms: _492  and  _494
REMARK  198  A    between atoms: _494  and  _495
REMARK  199  A    between atoms: _494  and  _497
REMARK  200  A    between atoms: _497  and  _498
REMARK  201  A    between atoms: _503  and  _504
REMARK  202  A    between atoms: _506  and  _508
REMARK  203  A    between atoms: _508  and  _509
REMARK  204  A    between atoms: _508  and  _511
REMARK  205  A    between atoms: _511  and  _512
REMARK  206  A    between atoms: _512  and  _513
REMARK  207  A    between atoms: _513  and  _514
REMARK  208  A    between atoms: _514  and  _515
REMARK  209  A    between atoms: _519  and  _521
REMARK  210  A    between atoms: _521  and  _522
REMARK  211  A    between atoms: _521  and  _524
REMARK  212  A    between atoms: _524  and  _525
REMARK  213  A    between atoms: _527  and  _529
REMARK  214  A    between atoms: _529  and  _530
REMARK  215  A    between atoms: _529  and  _532
REMARK  216  A    between atoms: _532  and  _533
REMARK  217  A    between atoms: _536  and  _538
REMARK  218  A    between atoms: _538  and  _539
REMARK  219  A    between atoms: _538  and  _541
REMARK  220  A    between atoms: _541  and  _542
REMARK  221  A    between atoms: _542  and  _543
REMARK  222  A    between atoms: _546  and  _548
REMARK  223  A    between atoms: _548  and  _549
REMARK  224  A    between atoms: _552  and  _554
REMARK  225  A    between atoms: _554  and  _555
REMARK  226  A    between atoms: _554  and  _557
REMARK  227  A    between atoms: _557  and  _558
REMARK  228  A    between atoms: _560  and  _562
REMARK  229  A    between atoms: _562  and  _563
REMARK  230  A    between atoms: _565  and  _567
REMARK  231  A    between atoms: _567  and  _568
REMARK  232  A    between atoms: _567  and  _570
REMARK  233  A    between atoms: _570  and  _571
REMARK  234  A    between atoms: _574  and  _576
REMARK  235  A    between atoms: _576  and  _577
REMARK  236  A    between atoms: _579  and  _581
REMARK  237  A    between atoms: _581  and  _582
REMARK  238  A    between atoms: _581  and  _584
REMARK  239  A    between atoms: _584  and  _585
REMARK  240  A    between atoms: _590  and  _592
REMARK  241  A    between atoms: _592  and  _593
REMARK  242  A    between atoms: _592  and  _595
REMARK  243  A    between atoms: _595  and  _596
REMARK  244  A    between atoms: _596  and  _597
REMARK  245  A    between atoms: _604  and  _605
REMARK  246  A    between atoms: _605  and  _621
REMARK  247  A    between atoms: _606  and  _608
REMARK  248  A    between atoms: _608  and  _609
REMARK  249  A    between atoms: _609  and  _610
REMARK  250  A    between atoms: _614  and  _616
REMARK  251  A    between atoms: _616  and  _617
REMARK  252  A    between atoms: _616  and  _624
REMARK  253  A    between atoms: _617  and  _618
REMARK  254  A    between atoms: _618  and  _619
REMARK  255  A    between atoms: _619  and  _620
REMARK  256  A    between atoms: _620  and  _621
REMARK  257  A    between atoms: _626  and  _628
REMARK  258  A    between atoms: _628  and  _629
REMARK  259  A    between atoms: _628  and  _631
REMARK  260  A    between atoms: _631  and  _632
REMARK  261  A    between atoms: _635  and  _637
REMARK  262  A    between atoms: _637  and  _638
REMARK  263  A    between atoms: _640  and  _642
REMARK  264  A    between atoms: _642  and  _643
REMARK  265  A    between atoms: _646  and  _648
REMARK  266  A    between atoms: _648  and  _649
REMARK  267  A    between atoms: _648  and  _651
REMARK  268  A    between atoms: _651  and  _652
REMARK  269  A    between atoms: _657  and  _658
REMARK                            x       y       z     vdW  Elec       q    Type
REMARK                         _______ _______ _______ _____ _____    ______ ____
ROOT
ATOM      1  O   HOH     1      40.311  28.400  37.610  0.00  0.00    +0.000 OA
ENDROOT
TORSDOF 0
REMARK  Name = ../refined-set-2016/2qrp/2qrp_pocket.pdb
REMARK  269 active torsions:
REMARK  status: ('A' for Active; 'I' for Inactive)
REMARK    1  A    between atoms: _1  and  _3
REMARK    2  A    between atoms: _3  and  _4
REMARK    3  A    between atoms: _3  and  _6
REMARK    4  A    between atoms: _6  and  _7
REMARK    5  A    between atoms: _12  and  _13
REMARK    6  A    between atoms: _15  and  _17
REMARK    7  A    between atoms: _17  and  _18
REMARK    8  A    between atoms: _17  and  _20
REMARK    9  A    between atoms: _20  and  _21
REMARK   10  A    between atoms: _24  and  _26
REMARK   11  A    between atoms: _26  and  _27
REMARK   12  A    between atoms: _26  and  _29
REMARK   13  A    between atoms: _29  and  _30
REMARK   14  A    between atoms: _30  and  _31
REMARK   15  A    between atoms: _34  and  _36
REMARK   16  A    between atoms: _36  and  _37
REMARK   17  A    between atoms: _39  and  _41
REMARK   18  A    between atoms: _41  and  _42
REMARK   19  A    between atoms: _41  and  _44
REMARK   20  A    between atoms: _44  and  _45
REMARK   21  A    between atoms: _50  and  _52
REMARK   22  A    between atoms: _52  and  _53
REMARK   23  A    between atoms: _55  and  _57
REMARK   24  A    between atoms: _57  and  _58
REMARK   25  A    between atoms: _60  and  _62
REMARK   26  A    between atoms: _62  and  _63
REMARK   27  A    between atoms: _62  and  _65
REMARK   28  A    between atoms: _65  and  _66
REMARK   29  A    between atoms: _69  and  _71
REMARK   30  A    between atoms: _71  and  _72
REMARK   31  A    between atoms: _74  and  _76
REMARK   32  A    between atoms: _76  and  _77
REMARK   33  A    between atoms: _76  and  _79
REMARK   34  A    between atoms: _79  and  _80
REMARK   35  A    between atoms: _80  and  _81
REMARK   36  A    between atoms: _81  and  _82
REMARK   37  A    between atoms: _91  and  _93
REMARK   38  A    between atoms: _93  and  _94
REMARK   39  A    between atoms: _93  and  _96
REMARK   40  A    between atoms: _96  and  _97
REMARK   41  A    between atoms: _100  and  _102
REMARK   42  A    between atoms: _102  and  _103
REMARK   43  A    between atoms: _106  and  _108
REMARK   44  A    between atoms: _108  and  _109
REMARK   45  A    between atoms: _108  and  _111
REMARK   46  A    between atoms: _111  and  _112
REMARK   47  A    between atoms: _118  and  _120
REMARK   48  A    between atoms: _120  and  _121
REMARK   49  A    between atoms: _120  and  _123
REMARK   50  A    between atoms: _123  and  _124
REMARK   51  A    between atoms: _127  and  _129
REMARK   52  A    between atoms: _129  and  _130
REMARK   53  A    between atoms: _129  and  _132
REMARK   54  A    between atoms: _132  and  _133
REMARK   55  A    between atoms: _138  and  _139
REMARK   56  A    between atoms: _142  and  _143
REMARK   57  A    between atoms: _148  and  _150
REMARK   58  A    between atoms: _150  and  _151
REMARK   59  A    between atoms: _150  and  _153
REMARK   60  A    between atoms: _153  and  _154
REMARK   61  A    between atoms: _159  and  _161
REMARK   62  A    between atoms: _161  and  _162
REMARK   63  A    between atoms: _161  and  _164
REMARK   64  A    between atoms: _164  and  _165
REMARK   65  A    between atoms: _168  and  _170
REMARK   66  A    between atoms: _170  and  _171
REMARK   67  A    between atoms: _170  and  _173
REMARK   68  A    between atoms: _173  and  _174
REMARK   69  A    between atoms: _179  and  _181
REMARK   70  A    between atoms: _181  and  _182
REMARK   71  A    between atoms: _181  and  _184
REMARK   72  A    between atoms: _184  and  _185
REMARK   73  A    between atoms: _191  and  _193
REMARK   74  A    between atoms: _193  and  _194
REMARK   75  A    between atoms: _193  and  _196
REMARK   76  A    between atoms: _196  and  _197
REMARK   77  A    between atoms: _203  and  _205
REMARK   78  A    between atoms: _205  and  _206
REMARK   79  A    between atoms: _205  and  _208
REMARK   80  A    between atoms: _208  and  _209
REMARK   81  A    between atoms: _209  and  _210
REMARK   82  A    between atoms: _213  and  _215
REMARK   83  A    between atoms: _215  and  _216
REMARK   84  A    between atoms: _215  and  _218
REMARK   85  A    between atoms: _218  and  _219
REMARK   86  A    between atoms: _219  and  _220
REMARK   87  A    between atoms: _220  and  _221
REMARK   88  A    between atoms: _230  and  _232
REMARK   89  A    between atoms: _232  and  _233
REMARK   90  A    between atoms: _232  and  _235
REMARK   91  A    between atoms: _235  and  _236
REMARK   92  A    between atoms: _236  and  _237
REMARK   93  A    between atoms: _240  and  _242
REMARK   94  A    between atoms: _242  and  _243
REMARK   95  A    between atoms: _242  and  _245
REMARK   96  A    between atoms: _245  and  _246
REMARK   97  A    between atoms: _251  and  _253
REMARK   98  A    between atoms: _253  and  _254
REMARK   99  A    between atoms: _253  and  _256
REMARK  100  A    between atoms: _256  and  _257
REMARK  101  A    between atoms: _260  and  _262
REMARK  102  A    between atoms: _262  and  _263
REMARK  103  A    between atoms: _262  and  _265
REMARK  104  A    between atoms: _265  and  _266
REMARK  105  A    between atoms: _269  and  _271
REMARK  106  A    between atoms: _271  and  _272
REMARK  107  A    between atoms: _271  and  _274
REMARK  108  A    between atoms: _274  and  _275
REMARK  109  A    between atoms: _280  and  _282
REMARK  110  A    between atoms: _282  and  _283
REMARK  111  A    between atoms: _282  and  _285
REMARK  112  A    between atoms: _285  and  _286
REMARK  113  A    between atoms: _289  and  _291
REMARK  114  A    between atoms: _291  and  _292
REMARK  115  A    between atoms: _291  and  _294
REMARK  116  A    between atoms: _294  and  _295
REMARK  117  A    between atoms: _300  and  _302
REMARK  118  A    between atoms: _302  and  _303
REMARK  119  A    between atoms: _302  and  _305
REMARK  120  A    between atoms: _305  and  _306
REMARK  121  A    between atoms: _311  and  _313
REMARK  122  A    between atoms: _313  and  _314
REMARK  123  A    between atoms: _313  and  _316
REMARK  124  A    between atoms: _316  and  _317
REMARK  125  A    between atoms: _320  and  _322
REMARK  126  A    between atoms: _322  and  _323
REMARK  127  A    between atoms: _322  and  _325
REMARK  128  A    between atoms: _328  and  _330
REMARK  129  A    between atoms: _330  and  _331
REMARK  130  A    between atoms: _330  and  _333
REMARK  131  A    between atoms: _333  and  _334
REMARK  132  A    between atoms: _337  and  _339
REMARK  133  A    between atoms: _339  and  _340
REMARK  134  A    between atoms: _339  and  _342
REMARK  135  A    between atoms: _342  and  _343
REMARK  136  A    between atoms: _343  and  _344
REMARK  137  A    between atoms: _347  and  _349
REMARK  138  A    between atoms: _349  and  _350
REMARK  139  A    between atoms: _353  and  _355
REMARK  140  A    between atoms: _355  and  _356
REMARK  141  A    between atoms: _355  and  _358
REMARK  142  A    between atoms: _358  and  _359
REMARK  143  A    between atoms: _362  and  _364
REMARK  144  A    between atoms: _364  and  _365
REMARK  145  A    between atoms: _364  and  _367
REMARK  146  A    between atoms: _367  and  _368
REMARK  147  A    between atoms: _368  and  _369
REMARK  148  A    between atoms: _372  and  _374
REMARK  149  A    between atoms: _374  and  _375
REMARK  150  A    between atoms: _374  and  _377
REMARK  151  A    between atoms: _377  and  _378
REMARK  152  A    between atoms: _383  and  _385
REMARK  153  A    between atoms: _385  and  _386
REMARK  154  A    between atoms: _388  and  _390
REMARK  155  A    between atoms: _390  and  _391
REMARK  156  A    between atoms: _390  and  _393
REMARK  157  A    between atoms: _396  and  _398
REMARK  158  A    between atoms: _398  and  _399
REMARK  159  A    between atoms: _402  and  _404
REMARK  160  A    between atoms: _404  and  _405
REMARK  161  A    between atoms: _404  and  _407
REMARK  162  A    between atoms: _407  and  _408
REMARK  163  A    between atoms: _413  and  _415
REMARK  164  A    between atoms: _415  and  _416
REMARK  165  A    between atoms: _415  and  _418
REMARK  166  A    between atoms: _418  and  _419
REMARK  167  A    between atoms: _419  and  _420
REMARK  168  A    between atoms: _420  and  _421
REMARK  169  A    between atoms: _421  and  _422
REMARK  170  A    between atoms: _426  and  _428
REMARK  171  A    between atoms: _428  and  _429
REMARK  172  A    between atoms: _428  and  _431
REMARK  173  A    between atoms: _431  and  _432
REMARK  174  A    between atoms: _435  and  _437
REMARK  175  A    between atoms: _437  and  _438
REMARK  176  A    between atoms: _437  and  _440
REMARK  177  A    between atoms: _440  and  _441
REMARK  178  A    between atoms: _446  and  _448
REMARK  179  A    between atoms: _448  and  _449
REMARK  180  A    between atoms: _451  and  _453
REMARK  181  A    between atoms: _453  and  _454
REMARK  182  A    between atoms: _453  and  _456
REMARK  183  A    between atoms: _456  and  _457
REMARK  184  A    between atoms: _457  and  _458
REMARK  185  A    between atoms: _458  and  _459
REMARK  186  A    between atoms: _459  and  _460
REMARK  187  A    between atoms: _464  and  _466
REMARK  188  A    between atoms: _466  and  _467
REMARK  189  A    between atoms: _466  and  _469
REMARK  190  A    between atoms: _469  and  _470
REMARK  191  A    between atoms: _470  and  _471
REMARK  192  A    between atoms: _471  and  _472
REMARK  193  A    between atoms: _481  and  _483
REMARK  194  A    between atoms: _483  and  _484
REMARK  195  A    between atoms: _483  and  _486
REMARK  196  A    between atoms: _486  and  _487
REMARK  197  A    between atoms: _492  and  _494
REMARK  198  A    between atoms: _494  and  _495
REMARK  199  A    between atoms: _494  and  _497
REMARK  200  A    between atoms: _497  and  _498
REMARK  201  A    between atoms: _503  and  _504
REMARK  202  A    between atoms: _506  and  _508
REMARK  203  A    between atoms: _508  and  _509
REMARK  204  A    between atoms: _508  and  _511
REMARK  205  A    between atoms: _511  and  _512
REMARK  206  A    between atoms: _512  and  _513
REMARK  207  A    between atoms: _513  and  _514
REMARK  208  A    between atoms: _514  and  _515
REMARK  209  A    between atoms: _519  and  _521
REMARK  210  A    between atoms: _521  and  _522
REMARK  211  A    between atoms: _521  and  _524
REMARK  212  A    between atoms: _524  and  _525
REMARK  213  A    between atoms: _527  and  _529
REMARK  214  A    between atoms: _529  and  _530
REMARK  215  A    between atoms: _529  and  _532
REMARK  216  A    between atoms: _532  and  _533
REMARK  217  A    between atoms: _536  and  _538
REMARK  218  A    between atoms: _538  and  _539
REMARK  219  A    between atoms: _538  and  _541
REMARK  220  A    between atoms: _541  and  _542
REMARK  221  A    between atoms: _542  and  _543
REMARK  222  A    between atoms: _546  and  _548
REMARK  223  A    between atoms: _548  and  _549
REMARK  224  A    between atoms: _552  and  _554
REMARK  225  A    between atoms: _554  and  _555
REMARK  226  A    between atoms: _554  and  _557
REMARK  227  A    between atoms: _557  and  _558
REMARK  228  A    between atoms: _560  and  _562
REMARK  229  A    between atoms: _562  and  _563
REMARK  230  A    between atoms: _565  and  _567
REMARK  231  A    between atoms: _567  and  _568
REMARK  232  A    between atoms: _567  and  _570
REMARK  233  A    between atoms: _570  and  _571
REMARK  234  A    between atoms: _574  and  _576
REMARK  235  A    between atoms: _576  and  _577
REMARK  236  A    between atoms: _579  and  _581
REMARK  237  A    between atoms: _581  and  _582
REMARK  238  A    between atoms: _581  and  _584
REMARK  239  A    between atoms: _584  and  _585
REMARK  240  A    between atoms: _590  and  _592
REMARK  241  A    between atoms: _592  and  _593
REMARK  242  A    between atoms: _592  and  _595
REMARK  243  A    between atoms: _595  and  _596
REMARK  244  A    between atoms: _596  and  _597
REMARK  245  A    between atoms: _604  and  _605
REMARK  246  A    between atoms: _605  and  _621
REMARK  247  A    between atoms: _606  and  _608
REMARK  248  A    between atoms: _608  and  _609
REMARK  249  A    between atoms: _609  and  _610
REMARK  250  A    between atoms: _614  and  _616
REMARK  251  A    between atoms: _616  and  _617
REMARK  252  A    between atoms: _616  and  _624
REMARK  253  A    between atoms: _617  and  _618
REMARK  254  A    between atoms: _618  and  _619
REMARK  255  A    between atoms: _619  and  _620
REMARK  256  A    between atoms: _620  and  _621
REMARK  257  A    between atoms: _626  and  _628
REMARK  258  A    between atoms: _628  and  _629
REMARK  259  A    between atoms: _628  and  _631
REMARK  260  A    between atoms: _631  and  _632
REMARK  261  A    between atoms: _635  and  _637
REMARK  262  A    between atoms: _637  and  _638
REMARK  263  A    between atoms: _640  and  _642
REMARK  264  A    between atoms: _642  and  _643
REMARK  265  A    between atoms: _646  and  _648
REMARK  266  A    between atoms: _648  and  _649
REMARK  267  A    between atoms: _648  and  _651
REMARK  268  A    between atoms: _651  and  _652
REMARK  269  A    between atoms: _657  and  _658
REMARK                            x       y       z     vdW  Elec       q    Type
REMARK                         _______ _______ _______ _____ _____    ______ ____
ROOT
ATOM      1  O   HOH     1      41.025  23.467  32.159  0.00  0.00    +0.000 OA
ENDROOT
TORSDOF 0
REMARK  Name = ../refined-set-2016/2qrp/2qrp_pocket.pdb
REMARK  269 active torsions:
REMARK  status: ('A' for Active; 'I' for Inactive)
REMARK    1  A    between atoms: _1  and  _3
REMARK    2  A    between atoms: _3  and  _4
REMARK    3  A    between atoms: _3  and  _6
REMARK    4  A    between atoms: _6  and  _7
REMARK    5  A    between atoms: _12  and  _13
REMARK    6  A    between atoms: _15  and  _17
REMARK    7  A    between atoms: _17  and  _18
REMARK    8  A    between atoms: _17  and  _20
REMARK    9  A    between atoms: _20  and  _21
REMARK   10  A    between atoms: _24  and  _26
REMARK   11  A    between atoms: _26  and  _27
REMARK   12  A    between atoms: _26  and  _29
REMARK   13  A    between atoms: _29  and  _30
REMARK   14  A    between atoms: _30  and  _31
REMARK   15  A    between atoms: _34  and  _36
REMARK   16  A    between atoms: _36  and  _37
REMARK   17  A    between atoms: _39  and  _41
REMARK   18  A    between atoms: _41  and  _42
REMARK   19  A    between atoms: _41  and  _44
REMARK   20  A    between atoms: _44  and  _45
REMARK   21  A    between atoms: _50  and  _52
REMARK   22  A    between atoms: _52  and  _53
REMARK   23  A    between atoms: _55  and  _57
REMARK   24  A    between atoms: _57  and  _58
REMARK   25  A    between atoms: _60  and  _62
REMARK   26  A    between atoms: _62  and  _63
REMARK   27  A    between atoms: _62  and  _65
REMARK   28  A    between atoms: _65  and  _66
REMARK   29  A    between atoms: _69  and  _71
REMARK   30  A    between atoms: _71  and  _72
REMARK   31  A    between atoms: _74  and  _76
REMARK   32  A    between atoms: _76  and  _77
REMARK   33  A    between atoms: _76  and  _79
REMARK   34  A    between atoms: _79  and  _80
REMARK   35  A    between atoms: _80  and  _81
REMARK   36  A    between atoms: _81  and  _82
REMARK   37  A    between atoms: _91  and  _93
REMARK   38  A    between atoms: _93  and  _94
REMARK   39  A    between atoms: _93  and  _96
REMARK   40  A    between atoms: _96  and  _97
REMARK   41  A    between atoms: _100  and  _102
REMARK   42  A    between atoms: _102  and  _103
REMARK   43  A    between atoms: _106  and  _108
REMARK   44  A    between atoms: _108  and  _109
REMARK   45  A    between atoms: _108  and  _111
REMARK   46  A    between atoms: _111  and  _112
REMARK   47  A    between atoms: _118  and  _120
REMARK   48  A    between atoms: _120  and  _121
REMARK   49  A    between atoms: _120  and  _123
REMARK   50  A    between atoms: _123  and  _124
REMARK   51  A    between atoms: _127  and  _129
REMARK   52  A    between atoms: _129  and  _130
REMARK   53  A    between atoms: _129  and  _132
REMARK   54  A    between atoms: _132  and  _133
REMARK   55  A    between atoms: _138  and  _139
REMARK   56  A    between atoms: _142  and  _143
REMARK   57  A    between atoms: _148  and  _150
REMARK   58  A    between atoms: _150  and  _151
REMARK   59  A    between atoms: _150  and  _153
REMARK   60  A    between atoms: _153  and  _154
REMARK   61  A    between atoms: _159  and  _161
REMARK   62  A    between atoms: _161  and  _162
REMARK   63  A    between atoms: _161  and  _164
REMARK   64  A    between atoms: _164  and  _165
REMARK   65  A    between atoms: _168  and  _170
REMARK   66  A    between atoms: _170  and  _171
REMARK   67  A    between atoms: _170  and  _173
REMARK   68  A    between atoms: _173  and  _174
REMARK   69  A    between atoms: _179  and  _181
REMARK   70  A    between atoms: _181  and  _182
REMARK   71  A    between atoms: _181  and  _184
REMARK   72  A    between atoms: _184  and  _185
REMARK   73  A    between atoms: _191  and  _193
REMARK   74  A    between atoms: _193  and  _194
REMARK   75  A    between atoms: _193  and  _196
REMARK   76  A    between atoms: _196  and  _197
REMARK   77  A    between atoms: _203  and  _205
REMARK   78  A    between atoms: _205  and  _206
REMARK   79  A    between atoms: _205  and  _208
REMARK   80  A    between atoms: _208  and  _209
REMARK   81  A    between atoms: _209  and  _210
REMARK   82  A    between atoms: _213  and  _215
REMARK   83  A    between atoms: _215  and  _216
REMARK   84  A    between atoms: _215  and  _218
REMARK   85  A    between atoms: _218  and  _219
REMARK   86  A    between atoms: _219  and  _220
REMARK   87  A    between atoms: _220  and  _221
REMARK   88  A    between atoms: _230  and  _232
REMARK   89  A    between atoms: _232  and  _233
REMARK   90  A    between atoms: _232  and  _235
REMARK   91  A    between atoms: _235  and  _236
REMARK   92  A    between atoms: _236  and  _237
REMARK   93  A    between atoms: _240  and  _242
REMARK   94  A    between atoms: _242  and  _243
REMARK   95  A    between atoms: _242  and  _245
REMARK   96  A    between atoms: _245  and  _246
REMARK   97  A    between atoms: _251  and  _253
REMARK   98  A    between atoms: _253  and  _254
REMARK   99  A    between atoms: _253  and  _256
REMARK  100  A    between atoms: _256  and  _257
REMARK  101  A    between atoms: _260  and  _262
REMARK  102  A    between atoms: _262  and  _263
REMARK  103  A    between atoms: _262  and  _265
REMARK  104  A    between atoms: _265  and  _266
REMARK  105  A    between atoms: _269  and  _271
REMARK  106  A    between atoms: _271  and  _272
REMARK  107  A    between atoms: _271  and  _274
REMARK  108  A    between atoms: _274  and  _275
REMARK  109  A    between atoms: _280  and  _282
REMARK  110  A    between atoms: _282  and  _283
REMARK  111  A    between atoms: _282  and  _285
REMARK  112  A    between atoms: _285  and  _286
REMARK  113  A    between atoms: _289  and  _291
REMARK  114  A    between atoms: _291  and  _292
REMARK  115  A    between atoms: _291  and  _294
REMARK  116  A    between atoms: _294  and  _295
REMARK  117  A    between atoms: _300  and  _302
REMARK  118  A    between atoms: _302  and  _303
REMARK  119  A    between atoms: _302  and  _305
REMARK  120  A    between atoms: _305  and  _306
REMARK  121  A    between atoms: _311  and  _313
REMARK  122  A    between atoms: _313  and  _314
REMARK  123  A    between atoms: _313  and  _316
REMARK  124  A    between atoms: _316  and  _317
REMARK  125  A    between atoms: _320  and  _322
REMARK  126  A    between atoms: _322  and  _323
REMARK  127  A    between atoms: _322  and  _325
REMARK  128  A    between atoms: _328  and  _330
REMARK  129  A    between atoms: _330  and  _331
REMARK  130  A    between atoms: _330  and  _333
REMARK  131  A    between atoms: _333  and  _334
REMARK  132  A    between atoms: _337  and  _339
REMARK  133  A    between atoms: _339  and  _340
REMARK  134  A    between atoms: _339  and  _342
REMARK  135  A    between atoms: _342  and  _343
REMARK  136  A    between atoms: _343  and  _344
REMARK  137  A    between atoms: _347  and  _349
REMARK  138  A    between atoms: _349  and  _350
REMARK  139  A    between atoms: _353  and  _355
REMARK  140  A    between atoms: _355  and  _356
REMARK  141  A    between atoms: _355  and  _358
REMARK  142  A    between atoms: _358  and  _359
REMARK  143  A    between atoms: _362  and  _364
REMARK  144  A    between atoms: _364  and  _365
REMARK  145  A    between atoms: _364  and  _367
REMARK  146  A    between atoms: _367  and  _368
REMARK  147  A    between atoms: _368  and  _369
REMARK  148  A    between atoms: _372  and  _374
REMARK  149  A    between atoms: _374  and  _375
REMARK  150  A    between atoms: _374  and  _377
REMARK  151  A    between atoms: _377  and  _378
REMARK  152  A    between atoms: _383  and  _385
REMARK  153  A    between atoms: _385  and  _386
REMARK  154  A    between atoms: _388  and  _390
REMARK  155  A    between atoms: _390  and  _391
REMARK  156  A    between atoms: _390  and  _393
REMARK  157  A    between atoms: _396  and  _398
REMARK  158  A    between atoms: _398  and  _399
REMARK  159  A    between atoms: _402  and  _404
REMARK  160  A    between atoms: _404  and  _405
REMARK  161  A    between atoms: _404  and  _407
REMARK  162  A    between atoms: _407  and  _408
REMARK  163  A    between atoms: _413  and  _415
REMARK  164  A    between atoms: _415  and  _416
REMARK  165  A    between atoms: _415  and  _418
REMARK  166  A    between atoms: _418  and  _419
REMARK  167  A    between atoms: _419  and  _420
REMARK  168  A    between atoms: _420  and  _421
REMARK  169  A    between atoms: _421  and  _422
REMARK  170  A    between atoms: _426  and  _428
REMARK  171  A    between atoms: _428  and  _429
REMARK  172  A    between atoms: _428  and  _431
REMARK  173  A    between atoms: _431  and  _432
REMARK  174  A    between atoms: _435  and  _437
REMARK  175  A    between atoms: _437  and  _438
REMARK  176  A    between atoms: _437  and  _440
REMARK  177  A    between atoms: _440  and  _441
REMARK  178  A    between atoms: _446  and  _448
REMARK  179  A    between atoms: _448  and  _449
REMARK  180  A    between atoms: _451  and  _453
REMARK  181  A    between atoms: _453  and  _454
REMARK  182  A    between atoms: _453  and  _456
REMARK  183  A    between atoms: _456  and  _457
REMARK  184  A    between atoms: _457  and  _458
REMARK  185  A    between atoms: _458  and  _459
REMARK  186  A    between atoms: _459  and  _460
REMARK  187  A    between atoms: _464  and  _466
REMARK  188  A    between atoms: _466  and  _467
REMARK  189  A    between atoms: _466  and  _469
REMARK  190  A    between atoms: _469  and  _470
REMARK  191  A    between atoms: _470  and  _471
REMARK  192  A    between atoms: _471  and  _472
REMARK  193  A    between atoms: _481  and  _483
REMARK  194  A    between atoms: _483  and  _484
REMARK  195  A    between atoms: _483  and  _486
REMARK  196  A    between atoms: _486  and  _487
REMARK  197  A    between atoms: _492  and  _494
REMARK  198  A    between atoms: _494  and  _495
REMARK  199  A    between atoms: _494  and  _497
REMARK  200  A    between atoms: _497  and  _498
REMARK  201  A    between atoms: _503  and  _504
REMARK  202  A    between atoms: _506  and  _508
REMARK  203  A    between atoms: _508  and  _509
REMARK  204  A    between atoms: _508  and  _511
REMARK  205  A    between atoms: _511  and  _512
REMARK  206  A    between atoms: _512  and  _513
REMARK  207  A    between atoms: _513  and  _514
REMARK  208  A    between atoms: _514  and  _515
REMARK  209  A    between atoms: _519  and  _521
REMARK  210  A    between atoms: _521  and  _522
REMARK  211  A    between atoms: _521  and  _524
REMARK  212  A    between atoms: _524  and  _525
REMARK  213  A    between atoms: _527  and  _529
REMARK  214  A    between atoms: _529  and  _530
REMARK  215  A    between atoms: _529  and  _532
REMARK  216  A    between atoms: _532  and  _533
REMARK  217  A    between atoms: _536  and  _538
REMARK  218  A    between atoms: _538  and  _539
REMARK  219  A    between atoms: _538  and  _541
REMARK  220  A    between atoms: _541  and  _542
REMARK  221  A    between atoms: _542  and  _543
REMARK  222  A    between atoms: _546  and  _548
REMARK  223  A    between atoms: _548  and  _549
REMARK  224  A    between atoms: _552  and  _554
REMARK  225  A    between atoms: _554  and  _555
REMARK  226  A    between atoms: _554  and  _557
REMARK  227  A    between atoms: _557  and  _558
REMARK  228  A    between atoms: _560  and  _562
REMARK  229  A    between atoms: _562  and  _563
REMARK  230  A    between atoms: _565  and  _567
REMARK  231  A    between atoms: _567  and  _568
REMARK  232  A    between atoms: _567  and  _570
REMARK  233  A    between atoms: _570  and  _571
REMARK  234  A    between atoms: _574  and  _576
REMARK  235  A    between atoms: _576  and  _577
REMARK  236  A    between atoms: _579  and  _581
REMARK  237  A    between atoms: _581  and  _582
REMARK  238  A    between atoms: _581  and  _584
REMARK  239  A    between atoms: _584  and  _585
REMARK  240  A    between atoms: _590  and  _592
REMARK  241  A    between atoms: _592  and  _593
REMARK  242  A    between atoms: _592  and  _595
REMARK  243  A    between atoms: _595  and  _596
REMARK  244  A    between atoms: _596  and  _597
REMARK  245  A    between atoms: _604  and  _605
REMARK  246  A    between atoms: _605  and  _621
REMARK  247  A    between atoms: _606  and  _608
REMARK  248  A    between atoms: _608  and  _609
REMARK  249  A    between atoms: _609  and  _610
REMARK  250  A    between atoms: _614  and  _616
REMARK  251  A    between atoms: _616  and  _617
REMARK  252  A    between atoms: _616  and  _624
REMARK  253  A    between atoms: _617  and  _618
REMARK  254  A    between atoms: _618  and  _619
REMARK  255  A    between atoms: _619  and  _620
REMARK  256  A    between atoms: _620  and  _621
REMARK  257  A    between atoms: _626  and  _628
REMARK  258  A    between atoms: _628  and  _629
REMARK  259  A    between atoms: _628  and  _631
REMARK  260  A    between atoms: _631  and  _632
REMARK  261  A    between atoms: _635  and  _637
REMARK  262  A    between atoms: _637  and  _638
REMARK  263  A    between atoms: _640  and  _642
REMARK  264  A    between atoms: _642  and  _643
REMARK  265  A    between atoms: _646  and  _648
REMARK  266  A    between atoms: _648  and  _649
REMARK  267  A    between atoms: _648  and  _651
REMARK  268  A    between atoms: _651  and  _652
REMARK  269  A    between atoms: _657  and  _658
REMARK                            x       y       z     vdW  Elec       q    Type
REMARK                         _______ _______ _______ _____ _____    ______ ____
ROOT
ATOM      1  O   HOH     1      35.569  28.035  36.655  0.00  0.00    +0.000 OA
ENDROOT
TORSDOF 0
REMARK  Name = ../refined-set-2016/2qrp/2qrp_pocket.pdb
REMARK  269 active torsions:
REMARK  status: ('A' for Active; 'I' for Inactive)
REMARK    1  A    between atoms: _1  and  _3
REMARK    2  A    between atoms: _3  and  _4
REMARK    3  A    between atoms: _3  and  _6
REMARK    4  A    between atoms: _6  and  _7
REMARK    5  A    between atoms: _12  and  _13
REMARK    6  A    between atoms: _15  and  _17
REMARK    7  A    between atoms: _17  and  _18
REMARK    8  A    between atoms: _17  and  _20
REMARK    9  A    between atoms: _20  and  _21
REMARK   10  A    between atoms: _24  and  _26
REMARK   11  A    between atoms: _26  and  _27
REMARK   12  A    between atoms: _26  and  _29
REMARK   13  A    between atoms: _29  and  _30
REMARK   14  A    between atoms: _30  and  _31
REMARK   15  A    between atoms: _34  and  _36
REMARK   16  A    between atoms: _36  and  _37
REMARK   17  A    between atoms: _39  and  _41
REMARK   18  A    between atoms: _41  and  _42
REMARK   19  A    between atoms: _41  and  _44
REMARK   20  A    between atoms: _44  and  _45
REMARK   21  A    between atoms: _50  and  _52
REMARK   22  A    between atoms: _52  and  _53
REMARK   23  A    between atoms: _55  and  _57
REMARK   24  A    between atoms: _57  and  _58
REMARK   25  A    between atoms: _60  and  _62
REMARK   26  A    between atoms: _62  and  _63
REMARK   27  A    between atoms: _62  and  _65
REMARK   28  A    between atoms: _65  and  _66
REMARK   29  A    between atoms: _69  and  _71
REMARK   30  A    between atoms: _71  and  _72
REMARK   31  A    between atoms: _74  and  _76
REMARK   32  A    between atoms: _76  and  _77
REMARK   33  A    between atoms: _76  and  _79
REMARK   34  A    between atoms: _79  and  _80
REMARK   35  A    between atoms: _80  and  _81
REMARK   36  A    between atoms: _81  and  _82
REMARK   37  A    between atoms: _91  and  _93
REMARK   38  A    between atoms: _93  and  _94
REMARK   39  A    between atoms: _93  and  _96
REMARK   40  A    between atoms: _96  and  _97
REMARK   41  A    between atoms: _100  and  _102
REMARK   42  A    between atoms: _102  and  _103
REMARK   43  A    between atoms: _106  and  _108
REMARK   44  A    between atoms: _108  and  _109
REMARK   45  A    between atoms: _108  and  _111
REMARK   46  A    between atoms: _111  and  _112
REMARK   47  A    between atoms: _118  and  _120
REMARK   48  A    between atoms: _120  and  _121
REMARK   49  A    between atoms: _120  and  _123
REMARK   50  A    between atoms: _123  and  _124
REMARK   51  A    between atoms: _127  and  _129
REMARK   52  A    between atoms: _129  and  _130
REMARK   53  A    between atoms: _129  and  _132
REMARK   54  A    between atoms: _132  and  _133
REMARK   55  A    between atoms: _138  and  _139
REMARK   56  A    between atoms: _142  and  _143
REMARK   57  A    between atoms: _148  and  _150
REMARK   58  A    between atoms: _150  and  _151
REMARK   59  A    between atoms: _150  and  _153
REMARK   60  A    between atoms: _153  and  _154
REMARK   61  A    between atoms: _159  and  _161
REMARK   62  A    between atoms: _161  and  _162
REMARK   63  A    between atoms: _161  and  _164
REMARK   64  A    between atoms: _164  and  _165
REMARK   65  A    between atoms: _168  and  _170
REMARK   66  A    between atoms: _170  and  _171
REMARK   67  A    between atoms: _170  and  _173
REMARK   68  A    between atoms: _173  and  _174
REMARK   69  A    between atoms: _179  and  _181
REMARK   70  A    between atoms: _181  and  _182
REMARK   71  A    between atoms: _181  and  _184
REMARK   72  A    between atoms: _184  and  _185
REMARK   73  A    between atoms: _191  and  _193
REMARK   74  A    between atoms: _193  and  _194
REMARK   75  A    between atoms: _193  and  _196
REMARK   76  A    between atoms: _196  and  _197
REMARK   77  A    between atoms: _203  and  _205
REMARK   78  A    between atoms: _205  and  _206
REMARK   79  A    between atoms: _205  and  _208
REMARK   80  A    between atoms: _208  and  _209
REMARK   81  A    between atoms: _209  and  _210
REMARK   82  A    between atoms: _213  and  _215
REMARK   83  A    between atoms: _215  and  _216
REMARK   84  A    between atoms: _215  and  _218
REMARK   85  A    between atoms: _218  and  _219
REMARK   86  A    between atoms: _219  and  _220
REMARK   87  A    between atoms: _220  and  _221
REMARK   88  A    between atoms: _230  and  _232
REMARK   89  A    between atoms: _232  and  _233
REMARK   90  A    between atoms: _232  and  _235
REMARK   91  A    between atoms: _235  and  _236
REMARK   92  A    between atoms: _236  and  _237
REMARK   93  A    between atoms: _240  and  _242
REMARK   94  A    between atoms: _242  and  _243
REMARK   95  A    between atoms: _242  and  _245
REMARK   96  A    between atoms: _245  and  _246
REMARK   97  A    between atoms: _251  and  _253
REMARK   98  A    between atoms: _253  and  _254
REMARK   99  A    between atoms: _253  and  _256
REMARK  100  A    between atoms: _256  and  _257
REMARK  101  A    between atoms: _260  and  _262
REMARK  102  A    between atoms: _262  and  _263
REMARK  103  A    between atoms: _262  and  _265
REMARK  104  A    between atoms: _265  and  _266
REMARK  105  A    between atoms: _269  and  _271
REMARK  106  A    between atoms: _271  and  _272
REMARK  107  A    between atoms: _271  and  _274
REMARK  108  A    between atoms: _274  and  _275
REMARK  109  A    between atoms: _280  and  _282
REMARK  110  A    between atoms: _282  and  _283
REMARK  111  A    between atoms: _282  and  _285
REMARK  112  A    between atoms: _285  and  _286
REMARK  113  A    between atoms: _289  and  _291
REMARK  114  A    between atoms: _291  and  _292
REMARK  115  A    between atoms: _291  and  _294
REMARK  116  A    between atoms: _294  and  _295
REMARK  117  A    between atoms: _300  and  _302
REMARK  118  A    between atoms: _302  and  _303
REMARK  119  A    between atoms: _302  and  _305
REMARK  120  A    between atoms: _305  and  _306
REMARK  121  A    between atoms: _311  and  _313
REMARK  122  A    between atoms: _313  and  _314
REMARK  123  A    between atoms: _313  and  _316
REMARK  124  A    between atoms: _316  and  _317
REMARK  125  A    between atoms: _320  and  _322
REMARK  126  A    between atoms: _322  and  _323
REMARK  127  A    between atoms: _322  and  _325
REMARK  128  A    between atoms: _328  and  _330
REMARK  129  A    between atoms: _330  and  _331
REMARK  130  A    between atoms: _330  and  _333
REMARK  131  A    between atoms: _333  and  _334
REMARK  132  A    between atoms: _337  and  _339
REMARK  133  A    between atoms: _339  and  _340
REMARK  134  A    between atoms: _339  and  _342
REMARK  135  A    between atoms: _342  and  _343
REMARK  136  A    between atoms: _343  and  _344
REMARK  137  A    between atoms: _347  and  _349
REMARK  138  A    between atoms: _349  and  _350
REMARK  139  A    between atoms: _353  and  _355
REMARK  140  A    between atoms: _355  and  _356
REMARK  141  A    between atoms: _355  and  _358
REMARK  142  A    between atoms: _358  and  _359
REMARK  143  A    between atoms: _362  and  _364
REMARK  144  A    between atoms: _364  and  _365
REMARK  145  A    between atoms: _364  and  _367
REMARK  146  A    between atoms: _367  and  _368
REMARK  147  A    between atoms: _368  and  _369
REMARK  148  A    between atoms: _372  and  _374
REMARK  149  A    between atoms: _374  and  _375
REMARK  150  A    between atoms: _374  and  _377
REMARK  151  A    between atoms: _377  and  _378
REMARK  152  A    between atoms: _383  and  _385
REMARK  153  A    between atoms: _385  and  _386
REMARK  154  A    between atoms: _388  and  _390
REMARK  155  A    between atoms: _390  and  _391
REMARK  156  A    between atoms: _390  and  _393
REMARK  157  A    between atoms: _396  and  _398
REMARK  158  A    between atoms: _398  and  _399
REMARK  159  A    between atoms: _402  and  _404
REMARK  160  A    between atoms: _404  and  _405
REMARK  161  A    between atoms: _404  and  _407
REMARK  162  A    between atoms: _407  and  _408
REMARK  163  A    between atoms: _413  and  _415
REMARK  164  A    between atoms: _415  and  _416
REMARK  165  A    between atoms: _415  and  _418
REMARK  166  A    between atoms: _418  and  _419
REMARK  167  A    between atoms: _419  and  _420
REMARK  168  A    between atoms: _420  and  _421
REMARK  169  A    between atoms: _421  and  _422
REMARK  170  A    between atoms: _426  and  _428
REMARK  171  A    between atoms: _428  and  _429
REMARK  172  A    between atoms: _428  and  _431
REMARK  173  A    between atoms: _431  and  _432
REMARK  174  A    between atoms: _435  and  _437
REMARK  175  A    between atoms: _437  and  _438
REMARK  176  A    between atoms: _437  and  _440
REMARK  177  A    between atoms: _440  and  _441
REMARK  178  A    between atoms: _446  and  _448
REMARK  179  A    between atoms: _448  and  _449
REMARK  180  A    between atoms: _451  and  _453
REMARK  181  A    between atoms: _453  and  _454
REMARK  182  A    between atoms: _453  and  _456
REMARK  183  A    between atoms: _456  and  _457
REMARK  184  A    between atoms: _457  and  _458
REMARK  185  A    between atoms: _458  and  _459
REMARK  186  A    between atoms: _459  and  _460
REMARK  187  A    between atoms: _464  and  _466
REMARK  188  A    between atoms: _466  and  _467
REMARK  189  A    between atoms: _466  and  _469
REMARK  190  A    between atoms: _469  and  _470
REMARK  191  A    between atoms: _470  and  _471
REMARK  192  A    between atoms: _471  and  _472
REMARK  193  A    between atoms: _481  and  _483
REMARK  194  A    between atoms: _483  and  _484
REMARK  195  A    between atoms: _483  and  _486
REMARK  196  A    between atoms: _486  and  _487
REMARK  197  A    between atoms: _492  and  _494
REMARK  198  A    between atoms: _494  and  _495
REMARK  199  A    between atoms: _494  and  _497
REMARK  200  A    between atoms: _497  and  _498
REMARK  201  A    between atoms: _503  and  _504
REMARK  202  A    between atoms: _506  and  _508
REMARK  203  A    between atoms: _508  and  _509
REMARK  204  A    between atoms: _508  and  _511
REMARK  205  A    between atoms: _511  and  _512
REMARK  206  A    between atoms: _512  and  _513
REMARK  207  A    between atoms: _513  and  _514
REMARK  208  A    between atoms: _514  and  _515
REMARK  209  A    between atoms: _519  and  _521
REMARK  210  A    between atoms: _521  and  _522
REMARK  211  A    between atoms: _521  and  _524
REMARK  212  A    between atoms: _524  and  _525
REMARK  213  A    between atoms: _527  and  _529
REMARK  214  A    between atoms: _529  and  _530
REMARK  215  A    between atoms: _529  and  _532
REMARK  216  A    between atoms: _532  and  _533
REMARK  217  A    between atoms: _536  and  _538
REMARK  218  A    between atoms: _538  and  _539
REMARK  219  A    between atoms: _538  and  _541
REMARK  220  A    between atoms: _541  and  _542
REMARK  221  A    between atoms: _542  and  _543
REMARK  222  A    between atoms: _546  and  _548
REMARK  223  A    between atoms: _548  and  _549
REMARK  224  A    between atoms: _552  and  _554
REMARK  225  A    between atoms: _554  and  _555
REMARK  226  A    between atoms: _554  and  _557
REMARK  227  A    between atoms: _557  and  _558
REMARK  228  A    between atoms: _560  and  _562
REMARK  229  A    between atoms: _562  and  _563
REMARK  230  A    between atoms: _565  and  _567
REMARK  231  A    between atoms: _567  and  _568
REMARK  232  A    between atoms: _567  and  _570
REMARK  233  A    between atoms: _570  and  _571
REMARK  234  A    between atoms: _574  and  _576
REMARK  235  A    between atoms: _576  and  _577
REMARK  236  A    between atoms: _579  and  _581
REMARK  237  A    between atoms: _581  and  _582
REMARK  238  A    between atoms: _581  and  _584
REMARK  239  A    between atoms: _584  and  _585
REMARK  240  A    between atoms: _590  and  _592
REMARK  241  A    between atoms: _592  and  _593
REMARK  242  A    between atoms: _592  and  _595
REMARK  243  A    between atoms: _595  and  _596
REMARK  244  A    between atoms: _596  and  _597
REMARK  245  A    between atoms: _604  and  _605
REMARK  246  A    between atoms: _605  and  _621
REMARK  247  A    between atoms: _606  and  _608
REMARK  248  A    between atoms: _608  and  _609
REMARK  249  A    between atoms: _609  and  _610
REMARK  250  A    between atoms: _614  and  _616
REMARK  251  A    between atoms: _616  and  _617
REMARK  252  A    between atoms: _616  and  _624
REMARK  253  A    between atoms: _617  and  _618
REMARK  254  A    between atoms: _618  and  _619
REMARK  255  A    between atoms: _619  and  _620
REMARK  256  A    between atoms: _620  and  _621
REMARK  257  A    between atoms: _626  and  _628
REMARK  258  A    between atoms: _628  and  _629
REMARK  259  A    between atoms: _628  and  _631
REMARK  260  A    between atoms: _631  and  _632
REMARK  261  A    between atoms: _635  and  _637
REMARK  262  A    between atoms: _637  and  _638
REMARK  263  A    between atoms: _640  and  _642
REMARK  264  A    between atoms: _642  and  _643
REMARK  265  A    between atoms: _646  and  _648
REMARK  266  A    between atoms: _648  and  _649
REMARK  267  A    between atoms: _648  and  _651
REMARK  268  A    between atoms: _651  and  _652
REMARK  269  A    between atoms: _657  and  _658
REMARK                            x       y       z     vdW  Elec       q    Type
REMARK                         _______ _______ _______ _____ _____    ______ ____
ROOT
ATOM      1  O   HOH     1      31.590  26.091  26.656  0.00  0.00    +0.000 OA
ENDROOT
TORSDOF 0
REMARK  Name = ../refined-set-2016/2qrp/2qrp_pocket.pdb
REMARK  269 active torsions:
REMARK  status: ('A' for Active; 'I' for Inactive)
REMARK    1  A    between atoms: _1  and  _3
REMARK    2  A    between atoms: _3  and  _4
REMARK    3  A    between atoms: _3  and  _6
REMARK    4  A    between atoms: _6  and  _7
REMARK    5  A    between atoms: _12  and  _13
REMARK    6  A    between atoms: _15  and  _17
REMARK    7  A    between atoms: _17  and  _18
REMARK    8  A    between atoms: _17  and  _20
REMARK    9  A    between atoms: _20  and  _21
REMARK   10  A    between atoms: _24  and  _26
REMARK   11  A    between atoms: _26  and  _27
REMARK   12  A    between atoms: _26  and  _29
REMARK   13  A    between atoms: _29  and  _30
REMARK   14  A    between atoms: _30  and  _31
REMARK   15  A    between atoms: _34  and  _36
REMARK   16  A    between atoms: _36  and  _37
REMARK   17  A    between atoms: _39  and  _41
REMARK   18  A    between atoms: _41  and  _42
REMARK   19  A    between atoms: _41  and  _44
REMARK   20  A    between atoms: _44  and  _45
REMARK   21  A    between atoms: _50  and  _52
REMARK   22  A    between atoms: _52  and  _53
REMARK   23  A    between atoms: _55  and  _57
REMARK   24  A    between atoms: _57  and  _58
REMARK   25  A    between atoms: _60  and  _62
REMARK   26  A    between atoms: _62  and  _63
REMARK   27  A    between atoms: _62  and  _65
REMARK   28  A    between atoms: _65  and  _66
REMARK   29  A    between atoms: _69  and  _71
REMARK   30  A    between atoms: _71  and  _72
REMARK   31  A    between atoms: _74  and  _76
REMARK   32  A    between atoms: _76  and  _77
REMARK   33  A    between atoms: _76  and  _79
REMARK   34  A    between atoms: _79  and  _80
REMARK   35  A    between atoms: _80  and  _81
REMARK   36  A    between atoms: _81  and  _82
REMARK   37  A    between atoms: _91  and  _93
REMARK   38  A    between atoms: _93  and  _94
REMARK   39  A    between atoms: _93  and  _96
REMARK   40  A    between atoms: _96  and  _97
REMARK   41  A    between atoms: _100  and  _102
REMARK   42  A    between atoms: _102  and  _103
REMARK   43  A    between atoms: _106  and  _108
REMARK   44  A    between atoms: _108  and  _109
REMARK   45  A    between atoms: _108  and  _111
REMARK   46  A    between atoms: _111  and  _112
REMARK   47  A    between atoms: _118  and  _120
REMARK   48  A    between atoms: _120  and  _121
REMARK   49  A    between atoms: _120  and  _123
REMARK   50  A    between atoms: _123  and  _124
REMARK   51  A    between atoms: _127  and  _129
REMARK   52  A    between atoms: _129  and  _130
REMARK   53  A    between atoms: _129  and  _132
REMARK   54  A    between atoms: _132  and  _133
REMARK   55  A    between atoms: _138  and  _139
REMARK   56  A    between atoms: _142  and  _143
REMARK   57  A    between atoms: _148  and  _150
REMARK   58  A    between atoms: _150  and  _151
REMARK   59  A    between atoms: _150  and  _153
REMARK   60  A    between atoms: _153  and  _154
REMARK   61  A    between atoms: _159  and  _161
REMARK   62  A    between atoms: _161  and  _162
REMARK   63  A    between atoms: _161  and  _164
REMARK   64  A    between atoms: _164  and  _165
REMARK   65  A    between atoms: _168  and  _170
REMARK   66  A    between atoms: _170  and  _171
REMARK   67  A    between atoms: _170  and  _173
REMARK   68  A    between atoms: _173  and  _174
REMARK   69  A    between atoms: _179  and  _181
REMARK   70  A    between atoms: _181  and  _182
REMARK   71  A    between atoms: _181  and  _184
REMARK   72  A    between atoms: _184  and  _185
REMARK   73  A    between atoms: _191  and  _193
REMARK   74  A    between atoms: _193  and  _194
REMARK   75  A    between atoms: _193  and  _196
REMARK   76  A    between atoms: _196  and  _197
REMARK   77  A    between atoms: _203  and  _205
REMARK   78  A    between atoms: _205  and  _206
REMARK   79  A    between atoms: _205  and  _208
REMARK   80  A    between atoms: _208  and  _209
REMARK   81  A    between atoms: _209  and  _210
REMARK   82  A    between atoms: _213  and  _215
REMARK   83  A    between atoms: _215  and  _216
REMARK   84  A    between atoms: _215  and  _218
REMARK   85  A    between atoms: _218  and  _219
REMARK   86  A    between atoms: _219  and  _220
REMARK   87  A    between atoms: _220  and  _221
REMARK   88  A    between atoms: _230  and  _232
REMARK   89  A    between atoms: _232  and  _233
REMARK   90  A    between atoms: _232  and  _235
REMARK   91  A    between atoms: _235  and  _236
REMARK   92  A    between atoms: _236  and  _237
REMARK   93  A    between atoms: _240  and  _242
REMARK   94  A    between atoms: _242  and  _243
REMARK   95  A    between atoms: _242  and  _245
REMARK   96  A    between atoms: _245  and  _246
REMARK   97  A    between atoms: _251  and  _253
REMARK   98  A    between atoms: _253  and  _254
REMARK   99  A    between atoms: _253  and  _256
REMARK  100  A    between atoms: _256  and  _257
REMARK  101  A    between atoms: _260  and  _262
REMARK  102  A    between atoms: _262  and  _263
REMARK  103  A    between atoms: _262  and  _265
REMARK  104  A    between atoms: _265  and  _266
REMARK  105  A    between atoms: _269  and  _271
REMARK  106  A    between atoms: _271  and  _272
REMARK  107  A    between atoms: _271  and  _274
REMARK  108  A    between atoms: _274  and  _275
REMARK  109  A    between atoms: _280  and  _282
REMARK  110  A    between atoms: _282  and  _283
REMARK  111  A    between atoms: _282  and  _285
REMARK  112  A    between atoms: _285  and  _286
REMARK  113  A    between atoms: _289  and  _291
REMARK  114  A    between atoms: _291  and  _292
REMARK  115  A    between atoms: _291  and  _294
REMARK  116  A    between atoms: _294  and  _295
REMARK  117  A    between atoms: _300  and  _302
REMARK  118  A    between atoms: _302  and  _303
REMARK  119  A    between atoms: _302  and  _305
REMARK  120  A    between atoms: _305  and  _306
REMARK  121  A    between atoms: _311  and  _313
REMARK  122  A    between atoms: _313  and  _314
REMARK  123  A    between atoms: _313  and  _316
REMARK  124  A    between atoms: _316  and  _317
REMARK  125  A    between atoms: _320  and  _322
REMARK  126  A    between atoms: _322  and  _323
REMARK  127  A    between atoms: _322  and  _325
REMARK  128  A    between atoms: _328  and  _330
REMARK  129  A    between atoms: _330  and  _331
REMARK  130  A    between atoms: _330  and  _333
REMARK  131  A    between atoms: _333  and  _334
REMARK  132  A    between atoms: _337  and  _339
REMARK  133  A    between atoms: _339  and  _340
REMARK  134  A    between atoms: _339  and  _342
REMARK  135  A    between atoms: _342  and  _343
REMARK  136  A    between atoms: _343  and  _344
REMARK  137  A    between atoms: _347  and  _349
REMARK  138  A    between atoms: _349  and  _350
REMARK  139  A    between atoms: _353  and  _355
REMARK  140  A    between atoms: _355  and  _356
REMARK  141  A    between atoms: _355  and  _358
REMARK  142  A    between atoms: _358  and  _359
REMARK  143  A    between atoms: _362  and  _364
REMARK  144  A    between atoms: _364  and  _365
REMARK  145  A    between atoms: _364  and  _367
REMARK  146  A    between atoms: _367  and  _368
REMARK  147  A    between atoms: _368  and  _369
REMARK  148  A    between atoms: _372  and  _374
REMARK  149  A    between atoms: _374  and  _375
REMARK  150  A    between atoms: _374  and  _377
REMARK  151  A    between atoms: _377  and  _378
REMARK  152  A    between atoms: _383  and  _385
REMARK  153  A    between atoms: _385  and  _386
REMARK  154  A    between atoms: _388  and  _390
REMARK  155  A    between atoms: _390  and  _391
REMARK  156  A    between atoms: _390  and  _393
REMARK  157  A    between atoms: _396  and  _398
REMARK  158  A    between atoms: _398  and  _399
REMARK  159  A    between atoms: _402  and  _404
REMARK  160  A    between atoms: _404  and  _405
REMARK  161  A    between atoms: _404  and  _407
REMARK  162  A    between atoms: _407  and  _408
REMARK  163  A    between atoms: _413  and  _415
REMARK  164  A    between atoms: _415  and  _416
REMARK  165  A    between atoms: _415  and  _418
REMARK  166  A    between atoms: _418  and  _419
REMARK  167  A    between atoms: _419  and  _420
REMARK  168  A    between atoms: _420  and  _421
REMARK  169  A    between atoms: _421  and  _422
REMARK  170  A    between atoms: _426  and  _428
REMARK  171  A    between atoms: _428  and  _429
REMARK  172  A    between atoms: _428  and  _431
REMARK  173  A    between atoms: _431  and  _432
REMARK  174  A    between atoms: _435  and  _437
REMARK  175  A    between atoms: _437  and  _438
REMARK  176  A    between atoms: _437  and  _440
REMARK  177  A    between atoms: _440  and  _441
REMARK  178  A    between atoms: _446  and  _448
REMARK  179  A    between atoms: _448  and  _449
REMARK  180  A    between atoms: _451  and  _453
REMARK  181  A    between atoms: _453  and  _454
REMARK  182  A    between atoms: _453  and  _456
REMARK  183  A    between atoms: _456  and  _457
REMARK  184  A    between atoms: _457  and  _458
REMARK  185  A    between atoms: _458  and  _459
REMARK  186  A    between atoms: _459  and  _460
REMARK  187  A    between atoms: _464  and  _466
REMARK  188  A    between atoms: _466  and  _467
REMARK  189  A    between atoms: _466  and  _469
REMARK  190  A    between atoms: _469  and  _470
REMARK  191  A    between atoms: _470  and  _471
REMARK  192  A    between atoms: _471  and  _472
REMARK  193  A    between atoms: _481  and  _483
REMARK  194  A    between atoms: _483  and  _484
REMARK  195  A    between atoms: _483  and  _486
REMARK  196  A    between atoms: _486  and  _487
REMARK  197  A    between atoms: _492  and  _494
REMARK  198  A    between atoms: _494  and  _495
REMARK  199  A    between atoms: _494  and  _497
REMARK  200  A    between atoms: _497  and  _498
REMARK  201  A    between atoms: _503  and  _504
REMARK  202  A    between atoms: _506  and  _508
REMARK  203  A    between atoms: _508  and  _509
REMARK  204  A    between atoms: _508  and  _511
REMARK  205  A    between atoms: _511  and  _512
REMARK  206  A    between atoms: _512  and  _513
REMARK  207  A    between atoms: _513  and  _514
REMARK  208  A    between atoms: _514  and  _515
REMARK  209  A    between atoms: _519  and  _521
REMARK  210  A    between atoms: _521  and  _522
REMARK  211  A    between atoms: _521  and  _524
REMARK  212  A    between atoms: _524  and  _525
REMARK  213  A    between atoms: _527  and  _529
REMARK  214  A    between atoms: _529  and  _530
REMARK  215  A    between atoms: _529  and  _532
REMARK  216  A    between atoms: _532  and  _533
REMARK  217  A    between atoms: _536  and  _538
REMARK  218  A    between atoms: _538  and  _539
REMARK  219  A    between atoms: _538  and  _541
REMARK  220  A    between atoms: _541  and  _542
REMARK  221  A    between atoms: _542  and  _543
REMARK  222  A    between atoms: _546  and  _548
REMARK  223  A    between atoms: _548  and  _549
REMARK  224  A    between atoms: _552  and  _554
REMARK  225  A    between atoms: _554  and  _555
REMARK  226  A    between atoms: _554  and  _557
REMARK  227  A    between atoms: _557  and  _558
REMARK  228  A    between atoms: _560  and  _562
REMARK  229  A    between atoms: _562  and  _563
REMARK  230  A    between atoms: _565  and  _567
REMARK  231  A    between atoms: _567  and  _568
REMARK  232  A    between atoms: _567  and  _570
REMARK  233  A    between atoms: _570  and  _571
REMARK  234  A    between atoms: _574  and  _576
REMARK  235  A    between atoms: _576  and  _577
REMARK  236  A    between atoms: _579  and  _581
REMARK  237  A    between atoms: _581  and  _582
REMARK  238  A    between atoms: _581  and  _584
REMARK  239  A    between atoms: _584  and  _585
REMARK  240  A    between atoms: _590  and  _592
REMARK  241  A    between atoms: _592  and  _593
REMARK  242  A    between atoms: _592  and  _595
REMARK  243  A    between atoms: _595  and  _596
REMARK  244  A    between atoms: _596  and  _597
REMARK  245  A    between atoms: _604  and  _605
REMARK  246  A    between atoms: _605  and  _621
REMARK  247  A    between atoms: _606  and  _608
REMARK  248  A    between atoms: _608  and  _609
REMARK  249  A    between atoms: _609  and  _610
REMARK  250  A    between atoms: _614  and  _616
REMARK  251  A    between atoms: _616  and  _617
REMARK  252  A    between atoms: _616  and  _624
REMARK  253  A    between atoms: _617  and  _618
REMARK  254  A    between atoms: _618  and  _619
REMARK  255  A    between atoms: _619  and  _620
REMARK  256  A    between atoms: _620  and  _621
REMARK  257  A    between atoms: _626  and  _628
REMARK  258  A    between atoms: _628  and  _629
REMARK  259  A    between atoms: _628  and  _631
REMARK  260  A    between atoms: _631  and  _632
REMARK  261  A    between atoms: _635  and  _637
REMARK  262  A    between atoms: _637  and  _638
REMARK  263  A    between atoms: _640  and  _642
REMARK  264  A    between atoms: _642  and  _643
REMARK  265  A    between atoms: _646  and  _648
REMARK  266  A    between atoms: _648  and  _649
REMARK  267  A    between atoms: _648  and  _651
REMARK  268  A    between atoms: _651  and  _652
REMARK  269  A    between atoms: _657  and  _658
REMARK                            x       y       z     vdW  Elec       q    Type
REMARK                         _______ _______ _______ _____ _____    ______ ____
ROOT
ATOM      1  O   HOH     1      34.453  26.144  38.084  0.00  0.00    +0.000 OA
ENDROOT
TORSDOF 0
REMARK  Name = ../refined-set-2016/2qrp/2qrp_pocket.pdb
REMARK  269 active torsions:
REMARK  status: ('A' for Active; 'I' for Inactive)
REMARK    1  A    between atoms: _1  and  _3
REMARK    2  A    between atoms: _3  and  _4
REMARK    3  A    between atoms: _3  and  _6
REMARK    4  A    between atoms: _6  and  _7
REMARK    5  A    between atoms: _12  and  _13
REMARK    6  A    between atoms: _15  and  _17
REMARK    7  A    between atoms: _17  and  _18
REMARK    8  A    between atoms: _17  and  _20
REMARK    9  A    between atoms: _20  and  _21
REMARK   10  A    between atoms: _24  and  _26
REMARK   11  A    between atoms: _26  and  _27
REMARK   12  A    between atoms: _26  and  _29
REMARK   13  A    between atoms: _29  and  _30
REMARK   14  A    between atoms: _30  and  _31
REMARK   15  A    between atoms: _34  and  _36
REMARK   16  A    between atoms: _36  and  _37
REMARK   17  A    between atoms: _39  and  _41
REMARK   18  A    between atoms: _41  and  _42
REMARK   19  A    between atoms: _41  and  _44
REMARK   20  A    between atoms: _44  and  _45
REMARK   21  A    between atoms: _50  and  _52
REMARK   22  A    between atoms: _52  and  _53
REMARK   23  A    between atoms: _55  and  _57
REMARK   24  A    between atoms: _57  and  _58
REMARK   25  A    between atoms: _60  and  _62
REMARK   26  A    between atoms: _62  and  _63
REMARK   27  A    between atoms: _62  and  _65
REMARK   28  A    between atoms: _65  and  _66
REMARK   29  A    between atoms: _69  and  _71
REMARK   30  A    between atoms: _71  and  _72
REMARK   31  A    between atoms: _74  and  _76
REMARK   32  A    between atoms: _76  and  _77
REMARK   33  A    between atoms: _76  and  _79
REMARK   34  A    between atoms: _79  and  _80
REMARK   35  A    between atoms: _80  and  _81
REMARK   36  A    between atoms: _81  and  _82
REMARK   37  A    between atoms: _91  and  _93
REMARK   38  A    between atoms: _93  and  _94
REMARK   39  A    between atoms: _93  and  _96
REMARK   40  A    between atoms: _96  and  _97
REMARK   41  A    between atoms: _100  and  _102
REMARK   42  A    between atoms: _102  and  _103
REMARK   43  A    between atoms: _106  and  _108
REMARK   44  A    between atoms: _108  and  _109
REMARK   45  A    between atoms: _108  and  _111
REMARK   46  A    between atoms: _111  and  _112
REMARK   47  A    between atoms: _118  and  _120
REMARK   48  A    between atoms: _120  and  _121
REMARK   49  A    between atoms: _120  and  _123
REMARK   50  A    between atoms: _123  and  _124
REMARK   51  A    between atoms: _127  and  _129
REMARK   52  A    between atoms: _129  and  _130
REMARK   53  A    between atoms: _129  and  _132
REMARK   54  A    between atoms: _132  and  _133
REMARK   55  A    between atoms: _138  and  _139
REMARK   56  A    between atoms: _142  and  _143
REMARK   57  A    between atoms: _148  and  _150
REMARK   58  A    between atoms: _150  and  _151
REMARK   59  A    between atoms: _150  and  _153
REMARK   60  A    between atoms: _153  and  _154
REMARK   61  A    between atoms: _159  and  _161
REMARK   62  A    between atoms: _161  and  _162
REMARK   63  A    between atoms: _161  and  _164
REMARK   64  A    between atoms: _164  and  _165
REMARK   65  A    between atoms: _168  and  _170
REMARK   66  A    between atoms: _170  and  _171
REMARK   67  A    between atoms: _170  and  _173
REMARK   68  A    between atoms: _173  and  _174
REMARK   69  A    between atoms: _179  and  _181
REMARK   70  A    between atoms: _181  and  _182
REMARK   71  A    between atoms: _181  and  _184
REMARK   72  A    between atoms: _184  and  _185
REMARK   73  A    between atoms: _191  and  _193
REMARK   74  A    between atoms: _193  and  _194
REMARK   75  A    between atoms: _193  and  _196
REMARK   76  A    between atoms: _196  and  _197
REMARK   77  A    between atoms: _203  and  _205
REMARK   78  A    between atoms: _205  and  _206
REMARK   79  A    between atoms: _205  and  _208
REMARK   80  A    between atoms: _208  and  _209
REMARK   81  A    between atoms: _209  and  _210
REMARK   82  A    between atoms: _213  and  _215
REMARK   83  A    between atoms: _215  and  _216
REMARK   84  A    between atoms: _215  and  _218
REMARK   85  A    between atoms: _218  and  _219
REMARK   86  A    between atoms: _219  and  _220
REMARK   87  A    between atoms: _220  and  _221
REMARK   88  A    between atoms: _230  and  _232
REMARK   89  A    between atoms: _232  and  _233
REMARK   90  A    between atoms: _232  and  _235
REMARK   91  A    between atoms: _235  and  _236
REMARK   92  A    between atoms: _236  and  _237
REMARK   93  A    between atoms: _240  and  _242
REMARK   94  A    between atoms: _242  and  _243
REMARK   95  A    between atoms: _242  and  _245
REMARK   96  A    between atoms: _245  and  _246
REMARK   97  A    between atoms: _251  and  _253
REMARK   98  A    between atoms: _253  and  _254
REMARK   99  A    between atoms: _253  and  _256
REMARK  100  A    between atoms: _256  and  _257
REMARK  101  A    between atoms: _260  and  _262
REMARK  102  A    between atoms: _262  and  _263
REMARK  103  A    between atoms: _262  and  _265
REMARK  104  A    between atoms: _265  and  _266
REMARK  105  A    between atoms: _269  and  _271
REMARK  106  A    between atoms: _271  and  _272
REMARK  107  A    between atoms: _271  and  _274
REMARK  108  A    between atoms: _274  and  _275
REMARK  109  A    between atoms: _280  and  _282
REMARK  110  A    between atoms: _282  and  _283
REMARK  111  A    between atoms: _282  and  _285
REMARK  112  A    between atoms: _285  and  _286
REMARK  113  A    between atoms: _289  and  _291
REMARK  114  A    between atoms: _291  and  _292
REMARK  115  A    between atoms: _291  and  _294
REMARK  116  A    between atoms: _294  and  _295
REMARK  117  A    between atoms: _300  and  _302
REMARK  118  A    between atoms: _302  and  _303
REMARK  119  A    between atoms: _302  and  _305
REMARK  120  A    between atoms: _305  and  _306
REMARK  121  A    between atoms: _311  and  _313
REMARK  122  A    between atoms: _313  and  _314
REMARK  123  A    between atoms: _313  and  _316
REMARK  124  A    between atoms: _316  and  _317
REMARK  125  A    between atoms: _320  and  _322
REMARK  126  A    between atoms: _322  and  _323
REMARK  127  A    between atoms: _322  and  _325
REMARK  128  A    between atoms: _328  and  _330
REMARK  129  A    between atoms: _330  and  _331
REMARK  130  A    between atoms: _330  and  _333
REMARK  131  A    between atoms: _333  and  _334
REMARK  132  A    between atoms: _337  and  _339
REMARK  133  A    between atoms: _339  and  _340
REMARK  134  A    between atoms: _339  and  _342
REMARK  135  A    between atoms: _342  and  _343
REMARK  136  A    between atoms: _343  and  _344
REMARK  137  A    between atoms: _347  and  _349
REMARK  138  A    between atoms: _349  and  _350
REMARK  139  A    between atoms: _353  and  _355
REMARK  140  A    between atoms: _355  and  _356
REMARK  141  A    between atoms: _355  and  _358
REMARK  142  A    between atoms: _358  and  _359
REMARK  143  A    between atoms: _362  and  _364
REMARK  144  A    between atoms: _364  and  _365
REMARK  145  A    between atoms: _364  and  _367
REMARK  146  A    between atoms: _367  and  _368
REMARK  147  A    between atoms: _368  and  _369
REMARK  148  A    between atoms: _372  and  _374
REMARK  149  A    between atoms: _374  and  _375
REMARK  150  A    between atoms: _374  and  _377
REMARK  151  A    between atoms: _377  and  _378
REMARK  152  A    between atoms: _383  and  _385
REMARK  153  A    between atoms: _385  and  _386
REMARK  154  A    between atoms: _388  and  _390
REMARK  155  A    between atoms: _390  and  _391
REMARK  156  A    between atoms: _390  and  _393
REMARK  157  A    between atoms: _396  and  _398
REMARK  158  A    between atoms: _398  and  _399
REMARK  159  A    between atoms: _402  and  _404
REMARK  160  A    between atoms: _404  and  _405
REMARK  161  A    between atoms: _404  and  _407
REMARK  162  A    between atoms: _407  and  _408
REMARK  163  A    between atoms: _413  and  _415
REMARK  164  A    between atoms: _415  and  _416
REMARK  165  A    between atoms: _415  and  _418
REMARK  166  A    between atoms: _418  and  _419
REMARK  167  A    between atoms: _419  and  _420
REMARK  168  A    between atoms: _420  and  _421
REMARK  169  A    between atoms: _421  and  _422
REMARK  170  A    between atoms: _426  and  _428
REMARK  171  A    between atoms: _428  and  _429
REMARK  172  A    between atoms: _428  and  _431
REMARK  173  A    between atoms: _431  and  _432
REMARK  174  A    between atoms: _435  and  _437
REMARK  175  A    between atoms: _437  and  _438
REMARK  176  A    between atoms: _437  and  _440
REMARK  177  A    between atoms: _440  and  _441
REMARK  178  A    between atoms: _446  and  _448
REMARK  179  A    between atoms: _448  and  _449
REMARK  180  A    between atoms: _451  and  _453
REMARK  181  A    between atoms: _453  and  _454
REMARK  182  A    between atoms: _453  and  _456
REMARK  183  A    between atoms: _456  and  _457
REMARK  184  A    between atoms: _457  and  _458
REMARK  185  A    between atoms: _458  and  _459
REMARK  186  A    between atoms: _459  and  _460
REMARK  187  A    between atoms: _464  and  _466
REMARK  188  A    between atoms: _466  and  _467
REMARK  189  A    between atoms: _466  and  _469
REMARK  190  A    between atoms: _469  and  _470
REMARK  191  A    between atoms: _470  and  _471
REMARK  192  A    between atoms: _471  and  _472
REMARK  193  A    between atoms: _481  and  _483
REMARK  194  A    between atoms: _483  and  _484
REMARK  195  A    between atoms: _483  and  _486
REMARK  196  A    between atoms: _486  and  _487
REMARK  197  A    between atoms: _492  and  _494
REMARK  198  A    between atoms: _494  and  _495
REMARK  199  A    between atoms: _494  and  _497
REMARK  200  A    between atoms: _497  and  _498
REMARK  201  A    between atoms: _503  and  _504
REMARK  202  A    between atoms: _506  and  _508
REMARK  203  A    between atoms: _508  and  _509
REMARK  204  A    between atoms: _508  and  _511
REMARK  205  A    between atoms: _511  and  _512
REMARK  206  A    between atoms: _512  and  _513
REMARK  207  A    between atoms: _513  and  _514
REMARK  208  A    between atoms: _514  and  _515
REMARK  209  A    between atoms: _519  and  _521
REMARK  210  A    between atoms: _521  and  _522
REMARK  211  A    between atoms: _521  and  _524
REMARK  212  A    between atoms: _524  and  _525
REMARK  213  A    between atoms: _527  and  _529
REMARK  214  A    between atoms: _529  and  _530
REMARK  215  A    between atoms: _529  and  _532
REMARK  216  A    between atoms: _532  and  _533
REMARK  217  A    between atoms: _536  and  _538
REMARK  218  A    between atoms: _538  and  _539
REMARK  219  A    between atoms: _538  and  _541
REMARK  220  A    between atoms: _541  and  _542
REMARK  221  A    between atoms: _542  and  _543
REMARK  222  A    between atoms: _546  and  _548
REMARK  223  A    between atoms: _548  and  _549
REMARK  224  A    between atoms: _552  and  _554
REMARK  225  A    between atoms: _554  and  _555
REMARK  226  A    between atoms: _554  and  _557
REMARK  227  A    between atoms: _557  and  _558
REMARK  228  A    between atoms: _560  and  _562
REMARK  229  A    between atoms: _562  and  _563
REMARK  230  A    between atoms: _565  and  _567
REMARK  231  A    between atoms: _567  and  _568
REMARK  232  A    between atoms: _567  and  _570
REMARK  233  A    between atoms: _570  and  _571
REMARK  234  A    between atoms: _574  and  _576
REMARK  235  A    between atoms: _576  and  _577
REMARK  236  A    between atoms: _579  and  _581
REMARK  237  A    between atoms: _581  and  _582
REMARK  238  A    between atoms: _581  and  _584
REMARK  239  A    between atoms: _584  and  _585
REMARK  240  A    between atoms: _590  and  _592
REMARK  241  A    between atoms: _592  and  _593
REMARK  242  A    between atoms: _592  and  _595
REMARK  243  A    between atoms: _595  and  _596
REMARK  244  A    between atoms: _596  and  _597
REMARK  245  A    between atoms: _604  and  _605
REMARK  246  A    between atoms: _605  and  _621
REMARK  247  A    between atoms: _606  and  _608
REMARK  248  A    between atoms: _608  and  _609
REMARK  249  A    between atoms: _609  and  _610
REMARK  250  A    between atoms: _614  and  _616
REMARK  251  A    between atoms: _616  and  _617
REMARK  252  A    between atoms: _616  and  _624
REMARK  253  A    between atoms: _617  and  _618
REMARK  254  A    between atoms: _618  and  _619
REMARK  255  A    between atoms: _619  and  _620
REMARK  256  A    between atoms: _620  and  _621
REMARK  257  A    between atoms: _626  and  _628
REMARK  258  A    between atoms: _628  and  _629
REMARK  259  A    between atoms: _628  and  _631
REMARK  260  A    between atoms: _631  and  _632
REMARK  261  A    between atoms: _635  and  _637
REMARK  262  A    between atoms: _637  and  _638
REMARK  263  A    between atoms: _640  and  _642
REMARK  264  A    between atoms: _642  and  _643
REMARK  265  A    between atoms: _646  and  _648
REMARK  266  A    between atoms: _648  and  _649
REMARK  267  A    between atoms: _648  and  _651
REMARK  268  A    between atoms: _651  and  _652
REMARK  269  A    between atoms: _657  and  _658
REMARK                            x       y       z     vdW  Elec       q    Type
REMARK                         _______ _______ _______ _____ _____    ______ ____
ROOT
ATOM      1  O   HOH     1      36.890  27.167  23.398  0.00  0.00    +0.000 OA
ENDROOT
TORSDOF 0
REMARK  Name = ../refined-set-2016/2qrp/2qrp_pocket.pdb
REMARK  269 active torsions:
REMARK  status: ('A' for Active; 'I' for Inactive)
REMARK    1  A    between atoms: _1  and  _3
REMARK    2  A    between atoms: _3  and  _4
REMARK    3  A    between atoms: _3  and  _6
REMARK    4  A    between atoms: _6  and  _7
REMARK    5  A    between atoms: _12  and  _13
REMARK    6  A    between atoms: _15  and  _17
REMARK    7  A    between atoms: _17  and  _18
REMARK    8  A    between atoms: _17  and  _20
REMARK    9  A    between atoms: _20  and  _21
REMARK   10  A    between atoms: _24  and  _26
REMARK   11  A    between atoms: _26  and  _27
REMARK   12  A    between atoms: _26  and  _29
REMARK   13  A    between atoms: _29  and  _30
REMARK   14  A    between atoms: _30  and  _31
REMARK   15  A    between atoms: _34  and  _36
REMARK   16  A    between atoms: _36  and  _37
REMARK   17  A    between atoms: _39  and  _41
REMARK   18  A    between atoms: _41  and  _42
REMARK   19  A    between atoms: _41  and  _44
REMARK   20  A    between atoms: _44  and  _45
REMARK   21  A    between atoms: _50  and  _52
REMARK   22  A    between atoms: _52  and  _53
REMARK   23  A    between atoms: _55  and  _57
REMARK   24  A    between atoms: _57  and  _58
REMARK   25  A    between atoms: _60  and  _62
REMARK   26  A    between atoms: _62  and  _63
REMARK   27  A    between atoms: _62  and  _65
REMARK   28  A    between atoms: _65  and  _66
REMARK   29  A    between atoms: _69  and  _71
REMARK   30  A    between atoms: _71  and  _72
REMARK   31  A    between atoms: _74  and  _76
REMARK   32  A    between atoms: _76  and  _77
REMARK   33  A    between atoms: _76  and  _79
REMARK   34  A    between atoms: _79  and  _80
REMARK   35  A    between atoms: _80  and  _81
REMARK   36  A    between atoms: _81  and  _82
REMARK   37  A    between atoms: _91  and  _93
REMARK   38  A    between atoms: _93  and  _94
REMARK   39  A    between atoms: _93  and  _96
REMARK   40  A    between atoms: _96  and  _97
REMARK   41  A    between atoms: _100  and  _102
REMARK   42  A    between atoms: _102  and  _103
REMARK   43  A    between atoms: _106  and  _108
REMARK   44  A    between atoms: _108  and  _109
REMARK   45  A    between atoms: _108  and  _111
REMARK   46  A    between atoms: _111  and  _112
REMARK   47  A    between atoms: _118  and  _120
REMARK   48  A    between atoms: _120  and  _121
REMARK   49  A    between atoms: _120  and  _123
REMARK   50  A    between atoms: _123  and  _124
REMARK   51  A    between atoms: _127  and  _129
REMARK   52  A    between atoms: _129  and  _130
REMARK   53  A    between atoms: _129  and  _132
REMARK   54  A    between atoms: _132  and  _133
REMARK   55  A    between atoms: _138  and  _139
REMARK   56  A    between atoms: _142  and  _143
REMARK   57  A    between atoms: _148  and  _150
REMARK   58  A    between atoms: _150  and  _151
REMARK   59  A    between atoms: _150  and  _153
REMARK   60  A    between atoms: _153  and  _154
REMARK   61  A    between atoms: _159  and  _161
REMARK   62  A    between atoms: _161  and  _162
REMARK   63  A    between atoms: _161  and  _164
REMARK   64  A    between atoms: _164  and  _165
REMARK   65  A    between atoms: _168  and  _170
REMARK   66  A    between atoms: _170  and  _171
REMARK   67  A    between atoms: _170  and  _173
REMARK   68  A    between atoms: _173  and  _174
REMARK   69  A    between atoms: _179  and  _181
REMARK   70  A    between atoms: _181  and  _182
REMARK   71  A    between atoms: _181  and  _184
REMARK   72  A    between atoms: _184  and  _185
REMARK   73  A    between atoms: _191  and  _193
REMARK   74  A    between atoms: _193  and  _194
REMARK   75  A    between atoms: _193  and  _196
REMARK   76  A    between atoms: _196  and  _197
REMARK   77  A    between atoms: _203  and  _205
REMARK   78  A    between atoms: _205  and  _206
REMARK   79  A    between atoms: _205  and  _208
REMARK   80  A    between atoms: _208  and  _209
REMARK   81  A    between atoms: _209  and  _210
REMARK   82  A    between atoms: _213  and  _215
REMARK   83  A    between atoms: _215  and  _216
REMARK   84  A    between atoms: _215  and  _218
REMARK   85  A    between atoms: _218  and  _219
REMARK   86  A    between atoms: _219  and  _220
REMARK   87  A    between atoms: _220  and  _221
REMARK   88  A    between atoms: _230  and  _232
REMARK   89  A    between atoms: _232  and  _233
REMARK   90  A    between atoms: _232  and  _235
REMARK   91  A    between atoms: _235  and  _236
REMARK   92  A    between atoms: _236  and  _237
REMARK   93  A    between atoms: _240  and  _242
REMARK   94  A    between atoms: _242  and  _243
REMARK   95  A    between atoms: _242  and  _245
REMARK   96  A    between atoms: _245  and  _246
REMARK   97  A    between atoms: _251  and  _253
REMARK   98  A    between atoms: _253  and  _254
REMARK   99  A    between atoms: _253  and  _256
REMARK  100  A    between atoms: _256  and  _257
REMARK  101  A    between atoms: _260  and  _262
REMARK  102  A    between atoms: _262  and  _263
REMARK  103  A    between atoms: _262  and  _265
REMARK  104  A    between atoms: _265  and  _266
REMARK  105  A    between atoms: _269  and  _271
REMARK  106  A    between atoms: _271  and  _272
REMARK  107  A    between atoms: _271  and  _274
REMARK  108  A    between atoms: _274  and  _275
REMARK  109  A    between atoms: _280  and  _282
REMARK  110  A    between atoms: _282  and  _283
REMARK  111  A    between atoms: _282  and  _285
REMARK  112  A    between atoms: _285  and  _286
REMARK  113  A    between atoms: _289  and  _291
REMARK  114  A    between atoms: _291  and  _292
REMARK  115  A    between atoms: _291  and  _294
REMARK  116  A    between atoms: _294  and  _295
REMARK  117  A    between atoms: _300  and  _302
REMARK  118  A    between atoms: _302  and  _303
REMARK  119  A    between atoms: _302  and  _305
REMARK  120  A    between atoms: _305  and  _306
REMARK  121  A    between atoms: _311  and  _313
REMARK  122  A    between atoms: _313  and  _314
REMARK  123  A    between atoms: _313  and  _316
REMARK  124  A    between atoms: _316  and  _317
REMARK  125  A    between atoms: _320  and  _322
REMARK  126  A    between atoms: _322  and  _323
REMARK  127  A    between atoms: _322  and  _325
REMARK  128  A    between atoms: _328  and  _330
REMARK  129  A    between atoms: _330  and  _331
REMARK  130  A    between atoms: _330  and  _333
REMARK  131  A    between atoms: _333  and  _334
REMARK  132  A    between atoms: _337  and  _339
REMARK  133  A    between atoms: _339  and  _340
REMARK  134  A    between atoms: _339  and  _342
REMARK  135  A    between atoms: _342  and  _343
REMARK  136  A    between atoms: _343  and  _344
REMARK  137  A    between atoms: _347  and  _349
REMARK  138  A    between atoms: _349  and  _350
REMARK  139  A    between atoms: _353  and  _355
REMARK  140  A    between atoms: _355  and  _356
REMARK  141  A    between atoms: _355  and  _358
REMARK  142  A    between atoms: _358  and  _359
REMARK  143  A    between atoms: _362  and  _364
REMARK  144  A    between atoms: _364  and  _365
REMARK  145  A    between atoms: _364  and  _367
REMARK  146  A    between atoms: _367  and  _368
REMARK  147  A    between atoms: _368  and  _369
REMARK  148  A    between atoms: _372  and  _374
REMARK  149  A    between atoms: _374  and  _375
REMARK  150  A    between atoms: _374  and  _377
REMARK  151  A    between atoms: _377  and  _378
REMARK  152  A    between atoms: _383  and  _385
REMARK  153  A    between atoms: _385  and  _386
REMARK  154  A    between atoms: _388  and  _390
REMARK  155  A    between atoms: _390  and  _391
REMARK  156  A    between atoms: _390  and  _393
REMARK  157  A    between atoms: _396  and  _398
REMARK  158  A    between atoms: _398  and  _399
REMARK  159  A    between atoms: _402  and  _404
REMARK  160  A    between atoms: _404  and  _405
REMARK  161  A    between atoms: _404  and  _407
REMARK  162  A    between atoms: _407  and  _408
REMARK  163  A    between atoms: _413  and  _415
REMARK  164  A    between atoms: _415  and  _416
REMARK  165  A    between atoms: _415  and  _418
REMARK  166  A    between atoms: _418  and  _419
REMARK  167  A    between atoms: _419  and  _420
REMARK  168  A    between atoms: _420  and  _421
REMARK  169  A    between atoms: _421  and  _422
REMARK  170  A    between atoms: _426  and  _428
REMARK  171  A    between atoms: _428  and  _429
REMARK  172  A    between atoms: _428  and  _431
REMARK  173  A    between atoms: _431  and  _432
REMARK  174  A    between atoms: _435  and  _437
REMARK  175  A    between atoms: _437  and  _438
REMARK  176  A    between atoms: _437  and  _440
REMARK  177  A    between atoms: _440  and  _441
REMARK  178  A    between atoms: _446  and  _448
REMARK  179  A    between atoms: _448  and  _449
REMARK  180  A    between atoms: _451  and  _453
REMARK  181  A    between atoms: _453  and  _454
REMARK  182  A    between atoms: _453  and  _456
REMARK  183  A    between atoms: _456  and  _457
REMARK  184  A    between atoms: _457  and  _458
REMARK  185  A    between atoms: _458  and  _459
REMARK  186  A    between atoms: _459  and  _460
REMARK  187  A    between atoms: _464  and  _466
REMARK  188  A    between atoms: _466  and  _467
REMARK  189  A    between atoms: _466  and  _469
REMARK  190  A    between atoms: _469  and  _470
REMARK  191  A    between atoms: _470  and  _471
REMARK  192  A    between atoms: _471  and  _472
REMARK  193  A    between atoms: _481  and  _483
REMARK  194  A    between atoms: _483  and  _484
REMARK  195  A    between atoms: _483  and  _486
REMARK  196  A    between atoms: _486  and  _487
REMARK  197  A    between atoms: _492  and  _494
REMARK  198  A    between atoms: _494  and  _495
REMARK  199  A    between atoms: _494  and  _497
REMARK  200  A    between atoms: _497  and  _498
REMARK  201  A    between atoms: _503  and  _504
REMARK  202  A    between atoms: _506  and  _508
REMARK  203  A    between atoms: _508  and  _509
REMARK  204  A    between atoms: _508  and  _511
REMARK  205  A    between atoms: _511  and  _512
REMARK  206  A    between atoms: _512  and  _513
REMARK  207  A    between atoms: _513  and  _514
REMARK  208  A    between atoms: _514  and  _515
REMARK  209  A    between atoms: _519  and  _521
REMARK  210  A    between atoms: _521  and  _522
REMARK  211  A    between atoms: _521  and  _524
REMARK  212  A    between atoms: _524  and  _525
REMARK  213  A    between atoms: _527  and  _529
REMARK  214  A    between atoms: _529  and  _530
REMARK  215  A    between atoms: _529  and  _532
REMARK  216  A    between atoms: _532  and  _533
REMARK  217  A    between atoms: _536  and  _538
REMARK  218  A    between atoms: _538  and  _539
REMARK  219  A    between atoms: _538  and  _541
REMARK  220  A    between atoms: _541  and  _542
REMARK  221  A    between atoms: _542  and  _543
REMARK  222  A    between atoms: _546  and  _548
REMARK  223  A    between atoms: _548  and  _549
REMARK  224  A    between atoms: _552  and  _554
REMARK  225  A    between atoms: _554  and  _555
REMARK  226  A    between atoms: _554  and  _557
REMARK  227  A    between atoms: _557  and  _558
REMARK  228  A    between atoms: _560  and  _562
REMARK  229  A    between atoms: _562  and  _563
REMARK  230  A    between atoms: _565  and  _567
REMARK  231  A    between atoms: _567  and  _568
REMARK  232  A    between atoms: _567  and  _570
REMARK  233  A    between atoms: _570  and  _571
REMARK  234  A    between atoms: _574  and  _576
REMARK  235  A    between atoms: _576  and  _577
REMARK  236  A    between atoms: _579  and  _581
REMARK  237  A    between atoms: _581  and  _582
REMARK  238  A    between atoms: _581  and  _584
REMARK  239  A    between atoms: _584  and  _585
REMARK  240  A    between atoms: _590  and  _592
REMARK  241  A    between atoms: _592  and  _593
REMARK  242  A    between atoms: _592  and  _595
REMARK  243  A    between atoms: _595  and  _596
REMARK  244  A    between atoms: _596  and  _597
REMARK  245  A    between atoms: _604  and  _605
REMARK  246  A    between atoms: _605  and  _621
REMARK  247  A    between atoms: _606  and  _608
REMARK  248  A    between atoms: _608  and  _609
REMARK  249  A    between atoms: _609  and  _610
REMARK  250  A    between atoms: _614  and  _616
REMARK  251  A    between atoms: _616  and  _617
REMARK  252  A    between atoms: _616  and  _624
REMARK  253  A    between atoms: _617  and  _618
REMARK  254  A    between atoms: _618  and  _619
REMARK  255  A    between atoms: _619  and  _620
REMARK  256  A    between atoms: _620  and  _621
REMARK  257  A    between atoms: _626  and  _628
REMARK  258  A    between atoms: _628  and  _629
REMARK  259  A    between atoms: _628  and  _631
REMARK  260  A    between atoms: _631  and  _632
REMARK  261  A    between atoms: _635  and  _637
REMARK  262  A    between atoms: _637  and  _638
REMARK  263  A    between atoms: _640  and  _642
REMARK  264  A    between atoms: _642  and  _643
REMARK  265  A    between atoms: _646  and  _648
REMARK  266  A    between atoms: _648  and  _649
REMARK  267  A    between atoms: _648  and  _651
REMARK  268  A    between atoms: _651  and  _652
REMARK  269  A    between atoms: _657  and  _658
REMARK                            x       y       z     vdW  Elec       q    Type
REMARK                         _______ _______ _______ _____ _____    ______ ____
ROOT
ATOM      1  O   HOH     1      29.596  24.250  26.494  0.00  0.00    +0.000 OA
ENDROOT
TORSDOF 0
REMARK  Name = ../refined-set-2016/2qrp/2qrp_pocket.pdb
REMARK  269 active torsions:
REMARK  status: ('A' for Active; 'I' for Inactive)
REMARK    1  A    between atoms: _1  and  _3
REMARK    2  A    between atoms: _3  and  _4
REMARK    3  A    between atoms: _3  and  _6
REMARK    4  A    between atoms: _6  and  _7
REMARK    5  A    between atoms: _12  and  _13
REMARK    6  A    between atoms: _15  and  _17
REMARK    7  A    between atoms: _17  and  _18
REMARK    8  A    between atoms: _17  and  _20
REMARK    9  A    between atoms: _20  and  _21
REMARK   10  A    between atoms: _24  and  _26
REMARK   11  A    between atoms: _26  and  _27
REMARK   12  A    between atoms: _26  and  _29
REMARK   13  A    between atoms: _29  and  _30
REMARK   14  A    between atoms: _30  and  _31
REMARK   15  A    between atoms: _34  and  _36
REMARK   16  A    between atoms: _36  and  _37
REMARK   17  A    between atoms: _39  and  _41
REMARK   18  A    between atoms: _41  and  _42
REMARK   19  A    between atoms: _41  and  _44
REMARK   20  A    between atoms: _44  and  _45
REMARK   21  A    between atoms: _50  and  _52
REMARK   22  A    between atoms: _52  and  _53
REMARK   23  A    between atoms: _55  and  _57
REMARK   24  A    between atoms: _57  and  _58
REMARK   25  A    between atoms: _60  and  _62
REMARK   26  A    between atoms: _62  and  _63
REMARK   27  A    between atoms: _62  and  _65
REMARK   28  A    between atoms: _65  and  _66
REMARK   29  A    between atoms: _69  and  _71
REMARK   30  A    between atoms: _71  and  _72
REMARK   31  A    between atoms: _74  and  _76
REMARK   32  A    between atoms: _76  and  _77
REMARK   33  A    between atoms: _76  and  _79
REMARK   34  A    between atoms: _79  and  _80
REMARK   35  A    between atoms: _80  and  _81
REMARK   36  A    between atoms: _81  and  _82
REMARK   37  A    between atoms: _91  and  _93
REMARK   38  A    between atoms: _93  and  _94
REMARK   39  A    between atoms: _93  and  _96
REMARK   40  A    between atoms: _96  and  _97
REMARK   41  A    between atoms: _100  and  _102
REMARK   42  A    between atoms: _102  and  _103
REMARK   43  A    between atoms: _106  and  _108
REMARK   44  A    between atoms: _108  and  _109
REMARK   45  A    between atoms: _108  and  _111
REMARK   46  A    between atoms: _111  and  _112
REMARK   47  A    between atoms: _118  and  _120
REMARK   48  A    between atoms: _120  and  _121
REMARK   49  A    between atoms: _120  and  _123
REMARK   50  A    between atoms: _123  and  _124
REMARK   51  A    between atoms: _127  and  _129
REMARK   52  A    between atoms: _129  and  _130
REMARK   53  A    between atoms: _129  and  _132
REMARK   54  A    between atoms: _132  and  _133
REMARK   55  A    between atoms: _138  and  _139
REMARK   56  A    between atoms: _142  and  _143
REMARK   57  A    between atoms: _148  and  _150
REMARK   58  A    between atoms: _150  and  _151
REMARK   59  A    between atoms: _150  and  _153
REMARK   60  A    between atoms: _153  and  _154
REMARK   61  A    between atoms: _159  and  _161
REMARK   62  A    between atoms: _161  and  _162
REMARK   63  A    between atoms: _161  and  _164
REMARK   64  A    between atoms: _164  and  _165
REMARK   65  A    between atoms: _168  and  _170
REMARK   66  A    between atoms: _170  and  _171
REMARK   67  A    between atoms: _170  and  _173
REMARK   68  A    between atoms: _173  and  _174
REMARK   69  A    between atoms: _179  and  _181
REMARK   70  A    between atoms: _181  and  _182
REMARK   71  A    between atoms: _181  and  _184
REMARK   72  A    between atoms: _184  and  _185
REMARK   73  A    between atoms: _191  and  _193
REMARK   74  A    between atoms: _193  and  _194
REMARK   75  A    between atoms: _193  and  _196
REMARK   76  A    between atoms: _196  and  _197
REMARK   77  A    between atoms: _203  and  _205
REMARK   78  A    between atoms: _205  and  _206
REMARK   79  A    between atoms: _205  and  _208
REMARK   80  A    between atoms: _208  and  _209
REMARK   81  A    between atoms: _209  and  _210
REMARK   82  A    between atoms: _213  and  _215
REMARK   83  A    between atoms: _215  and  _216
REMARK   84  A    between atoms: _215  and  _218
REMARK   85  A    between atoms: _218  and  _219
REMARK   86  A    between atoms: _219  and  _220
REMARK   87  A    between atoms: _220  and  _221
REMARK   88  A    between atoms: _230  and  _232
REMARK   89  A    between atoms: _232  and  _233
REMARK   90  A    between atoms: _232  and  _235
REMARK   91  A    between atoms: _235  and  _236
REMARK   92  A    between atoms: _236  and  _237
REMARK   93  A    between atoms: _240  and  _242
REMARK   94  A    between atoms: _242  and  _243
REMARK   95  A    between atoms: _242  and  _245
REMARK   96  A    between atoms: _245  and  _246
REMARK   97  A    between atoms: _251  and  _253
REMARK   98  A    between atoms: _253  and  _254
REMARK   99  A    between atoms: _253  and  _256
REMARK  100  A    between atoms: _256  and  _257
REMARK  101  A    between atoms: _260  and  _262
REMARK  102  A    between atoms: _262  and  _263
REMARK  103  A    between atoms: _262  and  _265
REMARK  104  A    between atoms: _265  and  _266
REMARK  105  A    between atoms: _269  and  _271
REMARK  106  A    between atoms: _271  and  _272
REMARK  107  A    between atoms: _271  and  _274
REMARK  108  A    between atoms: _274  and  _275
REMARK  109  A    between atoms: _280  and  _282
REMARK  110  A    between atoms: _282  and  _283
REMARK  111  A    between atoms: _282  and  _285
REMARK  112  A    between atoms: _285  and  _286
REMARK  113  A    between atoms: _289  and  _291
REMARK  114  A    between atoms: _291  and  _292
REMARK  115  A    between atoms: _291  and  _294
REMARK  116  A    between atoms: _294  and  _295
REMARK  117  A    between atoms: _300  and  _302
REMARK  118  A    between atoms: _302  and  _303
REMARK  119  A    between atoms: _302  and  _305
REMARK  120  A    between atoms: _305  and  _306
REMARK  121  A    between atoms: _311  and  _313
REMARK  122  A    between atoms: _313  and  _314
REMARK  123  A    between atoms: _313  and  _316
REMARK  124  A    between atoms: _316  and  _317
REMARK  125  A    between atoms: _320  and  _322
REMARK  126  A    between atoms: _322  and  _323
REMARK  127  A    between atoms: _322  and  _325
REMARK  128  A    between atoms: _328  and  _330
REMARK  129  A    between atoms: _330  and  _331
REMARK  130  A    between atoms: _330  and  _333
REMARK  131  A    between atoms: _333  and  _334
REMARK  132  A    between atoms: _337  and  _339
REMARK  133  A    between atoms: _339  and  _340
REMARK  134  A    between atoms: _339  and  _342
REMARK  135  A    between atoms: _342  and  _343
REMARK  136  A    between atoms: _343  and  _344
REMARK  137  A    between atoms: _347  and  _349
REMARK  138  A    between atoms: _349  and  _350
REMARK  139  A    between atoms: _353  and  _355
REMARK  140  A    between atoms: _355  and  _356
REMARK  141  A    between atoms: _355  and  _358
REMARK  142  A    between atoms: _358  and  _359
REMARK  143  A    between atoms: _362  and  _364
REMARK  144  A    between atoms: _364  and  _365
REMARK  145  A    between atoms: _364  and  _367
REMARK  146  A    between atoms: _367  and  _368
REMARK  147  A    between atoms: _368  and  _369
REMARK  148  A    between atoms: _372  and  _374
REMARK  149  A    between atoms: _374  and  _375
REMARK  150  A    between atoms: _374  and  _377
REMARK  151  A    between atoms: _377  and  _378
REMARK  152  A    between atoms: _383  and  _385
REMARK  153  A    between atoms: _385  and  _386
REMARK  154  A    between atoms: _388  and  _390
REMARK  155  A    between atoms: _390  and  _391
REMARK  156  A    between atoms: _390  and  _393
REMARK  157  A    between atoms: _396  and  _398
REMARK  158  A    between atoms: _398  and  _399
REMARK  159  A    between atoms: _402  and  _404
REMARK  160  A    between atoms: _404  and  _405
REMARK  161  A    between atoms: _404  and  _407
REMARK  162  A    between atoms: _407  and  _408
REMARK  163  A    between atoms: _413  and  _415
REMARK  164  A    between atoms: _415  and  _416
REMARK  165  A    between atoms: _415  and  _418
REMARK  166  A    between atoms: _418  and  _419
REMARK  167  A    between atoms: _419  and  _420
REMARK  168  A    between atoms: _420  and  _421
REMARK  169  A    between atoms: _421  and  _422
REMARK  170  A    between atoms: _426  and  _428
REMARK  171  A    between atoms: _428  and  _429
REMARK  172  A    between atoms: _428  and  _431
REMARK  173  A    between atoms: _431  and  _432
REMARK  174  A    between atoms: _435  and  _437
REMARK  175  A    between atoms: _437  and  _438
REMARK  176  A    between atoms: _437  and  _440
REMARK  177  A    between atoms: _440  and  _441
REMARK  178  A    between atoms: _446  and  _448
REMARK  179  A    between atoms: _448  and  _449
REMARK  180  A    between atoms: _451  and  _453
REMARK  181  A    between atoms: _453  and  _454
REMARK  182  A    between atoms: _453  and  _456
REMARK  183  A    between atoms: _456  and  _457
REMARK  184  A    between atoms: _457  and  _458
REMARK  185  A    between atoms: _458  and  _459
REMARK  186  A    between atoms: _459  and  _460
REMARK  187  A    between atoms: _464  and  _466
REMARK  188  A    between atoms: _466  and  _467
REMARK  189  A    between atoms: _466  and  _469
REMARK  190  A    between atoms: _469  and  _470
REMARK  191  A    between atoms: _470  and  _471
REMARK  192  A    between atoms: _471  and  _472
REMARK  193  A    between atoms: _481  and  _483
REMARK  194  A    between atoms: _483  and  _484
REMARK  195  A    between atoms: _483  and  _486
REMARK  196  A    between atoms: _486  and  _487
REMARK  197  A    between atoms: _492  and  _494
REMARK  198  A    between atoms: _494  and  _495
REMARK  199  A    between atoms: _494  and  _497
REMARK  200  A    between atoms: _497  and  _498
REMARK  201  A    between atoms: _503  and  _504
REMARK  202  A    between atoms: _506  and  _508
REMARK  203  A    between atoms: _508  and  _509
REMARK  204  A    between atoms: _508  and  _511
REMARK  205  A    between atoms: _511  and  _512
REMARK  206  A    between atoms: _512  and  _513
REMARK  207  A    between atoms: _513  and  _514
REMARK  208  A    between atoms: _514  and  _515
REMARK  209  A    between atoms: _519  and  _521
REMARK  210  A    between atoms: _521  and  _522
REMARK  211  A    between atoms: _521  and  _524
REMARK  212  A    between atoms: _524  and  _525
REMARK  213  A    between atoms: _527  and  _529
REMARK  214  A    between atoms: _529  and  _530
REMARK  215  A    between atoms: _529  and  _532
REMARK  216  A    between atoms: _532  and  _533
REMARK  217  A    between atoms: _536  and  _538
REMARK  218  A    between atoms: _538  and  _539
REMARK  219  A    between atoms: _538  and  _541
REMARK  220  A    between atoms: _541  and  _542
REMARK  221  A    between atoms: _542  and  _543
REMARK  222  A    between atoms: _546  and  _548
REMARK  223  A    between atoms: _548  and  _549
REMARK  224  A    between atoms: _552  and  _554
REMARK  225  A    between atoms: _554  and  _555
REMARK  226  A    between atoms: _554  and  _557
REMARK  227  A    between atoms: _557  and  _558
REMARK  228  A    between atoms: _560  and  _562
REMARK  229  A    between atoms: _562  and  _563
REMARK  230  A    between atoms: _565  and  _567
REMARK  231  A    between atoms: _567  and  _568
REMARK  232  A    between atoms: _567  and  _570
REMARK  233  A    between atoms: _570  and  _571
REMARK  234  A    between atoms: _574  and  _576
REMARK  235  A    between atoms: _576  and  _577
REMARK  236  A    between atoms: _579  and  _581
REMARK  237  A    between atoms: _581  and  _582
REMARK  238  A    between atoms: _581  and  _584
REMARK  239  A    between atoms: _584  and  _585
REMARK  240  A    between atoms: _590  and  _592
REMARK  241  A    between atoms: _592  and  _593
REMARK  242  A    between atoms: _592  and  _595
REMARK  243  A    between atoms: _595  and  _596
REMARK  244  A    between atoms: _596  and  _597
REMARK  245  A    between atoms: _604  and  _605
REMARK  246  A    between atoms: _605  and  _621
REMARK  247  A    between atoms: _606  and  _608
REMARK  248  A    between atoms: _608  and  _609
REMARK  249  A    between atoms: _609  and  _610
REMARK  250  A    between atoms: _614  and  _616
REMARK  251  A    between atoms: _616  and  _617
REMARK  252  A    between atoms: _616  and  _624
REMARK  253  A    between atoms: _617  and  _618
REMARK  254  A    between atoms: _618  and  _619
REMARK  255  A    between atoms: _619  and  _620
REMARK  256  A    between atoms: _620  and  _621
REMARK  257  A    between atoms: _626  and  _628
REMARK  258  A    between atoms: _628  and  _629
REMARK  259  A    between atoms: _628  and  _631
REMARK  260  A    between atoms: _631  and  _632
REMARK  261  A    between atoms: _635  and  _637
REMARK  262  A    between atoms: _637  and  _638
REMARK  263  A    between atoms: _640  and  _642
REMARK  264  A    between atoms: _642  and  _643
REMARK  265  A    between atoms: _646  and  _648
REMARK  266  A    between atoms: _648  and  _649
REMARK  267  A    between atoms: _648  and  _651
REMARK  268  A    between atoms: _651  and  _652
REMARK  269  A    between atoms: _657  and  _658
REMARK                            x       y       z     vdW  Elec       q    Type
REMARK                         _______ _______ _______ _____ _____    ______ ____
ROOT
ATOM      1  O   HOH     1      31.108  25.157  30.923  0.00  0.00    +0.000 OA
ENDROOT
TORSDOF 0
