REMARK  Name = ../refined-set-2016/1fd0/1fd0_pocket.pdb
REMARK  267 active torsions:
REMARK  status: ('A' for Active; 'I' for Inactive)
REMARK    1  A    between atoms: _1  and  _3
REMARK    2  A    between atoms: _3  and  _4
REMARK    3  A    between atoms: _3  and  _6
REMARK    4  A    between atoms: _6  and  _7
REMARK    5  A    between atoms: _10  and  _12
REMARK    6  A    between atoms: _12  and  _13
REMARK    7  A    between atoms: _12  and  _15
REMARK    8  A    between atoms: _15  and  _16
REMARK    9  A    between atoms: _23  and  _24
REMARK   10  A    between atoms: _29  and  _31
REMARK   11  A    between atoms: _31  and  _32
REMARK   12  A    between atoms: _31  and  _34
REMARK   13  A    between atoms: _34  and  _35
REMARK   14  A    between atoms: _38  and  _40
REMARK   15  A    between atoms: _40  and  _41
REMARK   16  A    between atoms: _40  and  _43
REMARK   17  A    between atoms: _43  and  _44
REMARK   18  A    between atoms: _47  and  _49
REMARK   19  A    between atoms: _49  and  _50
REMARK   20  A    between atoms: _49  and  _52
REMARK   21  A    between atoms: _52  and  _53
REMARK   22  A    between atoms: _63  and  _65
REMARK   23  A    between atoms: _65  and  _66
REMARK   24  A    between atoms: _65  and  _68
REMARK   25  A    between atoms: _68  and  _69
REMARK   26  A    between atoms: _69  and  _70
REMARK   27  A    between atoms: _70  and  _71
REMARK   28  A    between atoms: _71  and  _72
REMARK   29  A    between atoms: _76  and  _78
REMARK   30  A    between atoms: _78  and  _79
REMARK   31  A    between atoms: _78  and  _81
REMARK   32  A    between atoms: _81  and  _82
REMARK   33  A    between atoms: _88  and  _90
REMARK   34  A    between atoms: _90  and  _91
REMARK   35  A    between atoms: _90  and  _93
REMARK   36  A    between atoms: _93  and  _94
REMARK   37  A    between atoms: _96  and  _98
REMARK   38  A    between atoms: _98  and  _99
REMARK   39  A    between atoms: _98  and  _101
REMARK   40  A    between atoms: _101  and  _102
REMARK   41  A    between atoms: _102  and  _103
REMARK   42  A    between atoms: _106  and  _108
REMARK   43  A    between atoms: _108  and  _109
REMARK   44  A    between atoms: _108  and  _111
REMARK   45  A    between atoms: _111  and  _112
REMARK   46  A    between atoms: _115  and  _117
REMARK   47  A    between atoms: _117  and  _118
REMARK   48  A    between atoms: _121  and  _123
REMARK   49  A    between atoms: _123  and  _124
REMARK   50  A    between atoms: _123  and  _126
REMARK   51  A    between atoms: _126  and  _127
REMARK   52  A    between atoms: _130  and  _132
REMARK   53  A    between atoms: _132  and  _133
REMARK   54  A    between atoms: _132  and  _135
REMARK   55  A    between atoms: _135  and  _136
REMARK   56  A    between atoms: _136  and  _137
REMARK   57  A    between atoms: _137  and  _138
REMARK   58  A    between atoms: _138  and  _139
REMARK   59  A    between atoms: _143  and  _145
REMARK   60  A    between atoms: _145  and  _146
REMARK   61  A    between atoms: _145  and  _148
REMARK   62  A    between atoms: _150  and  _152
REMARK   63  A    between atoms: _152  and  _153
REMARK   64  A    between atoms: _152  and  _155
REMARK   65  A    between atoms: _155  and  _156
REMARK   66  A    between atoms: _159  and  _161
REMARK   67  A    between atoms: _161  and  _162
REMARK   68  A    between atoms: _161  and  _164
REMARK   69  A    between atoms: _164  and  _165
REMARK   70  A    between atoms: _165  and  _166
REMARK   71  A    between atoms: _166  and  _167
REMARK   72  A    between atoms: _167  and  _168
REMARK   73  A    between atoms: _172  and  _174
REMARK   74  A    between atoms: _174  and  _175
REMARK   75  A    between atoms: _174  and  _177
REMARK   76  A    between atoms: _177  and  _178
REMARK   77  A    between atoms: _181  and  _183
REMARK   78  A    between atoms: _183  and  _184
REMARK   79  A    between atoms: _183  and  _186
REMARK   80  A    between atoms: _188  and  _190
REMARK   81  A    between atoms: _190  and  _191
REMARK   82  A    between atoms: _190  and  _193
REMARK   83  A    between atoms: _193  and  _194
REMARK   84  A    between atoms: _197  and  _199
REMARK   85  A    between atoms: _199  and  _200
REMARK   86  A    between atoms: _199  and  _202
REMARK   87  A    between atoms: _202  and  _203
REMARK   88  A    between atoms: _206  and  _208
REMARK   89  A    between atoms: _208  and  _209
REMARK   90  A    between atoms: _208  and  _211
REMARK   91  A    between atoms: _211  and  _212
REMARK   92  A    between atoms: _215  and  _217
REMARK   93  A    between atoms: _217  and  _218
REMARK   94  A    between atoms: _217  and  _220
REMARK   95  A    between atoms: _220  and  _221
REMARK   96  A    between atoms: _224  and  _226
REMARK   97  A    between atoms: _226  and  _227
REMARK   98  A    between atoms: _226  and  _229
REMARK   99  A    between atoms: _229  and  _230
REMARK  100  A    between atoms: _230  and  _231
REMARK  101  A    between atoms: _233  and  _235
REMARK  102  A    between atoms: _235  and  _236
REMARK  103  A    between atoms: _235  and  _238
REMARK  104  A    between atoms: _238  and  _239
REMARK  105  A    between atoms: _242  and  _244
REMARK  106  A    between atoms: _244  and  _245
REMARK  107  A    between atoms: _244  and  _247
REMARK  108  A    between atoms: _247  and  _248
REMARK  109  A    between atoms: _248  and  _249
REMARK  110  A    between atoms: _249  and  _250
REMARK  111  A    between atoms: _259  and  _261
REMARK  112  A    between atoms: _261  and  _262
REMARK  113  A    between atoms: _261  and  _264
REMARK  114  A    between atoms: _264  and  _265
REMARK  115  A    between atoms: _268  and  _270
REMARK  116  A    between atoms: _270  and  _271
REMARK  117  A    between atoms: _270  and  _273
REMARK  118  A    between atoms: _275  and  _277
REMARK  119  A    between atoms: _277  and  _278
REMARK  120  A    between atoms: _277  and  _280
REMARK  121  A    between atoms: _280  and  _281
REMARK  122  A    between atoms: _284  and  _286
REMARK  123  A    between atoms: _286  and  _287
REMARK  124  A    between atoms: _286  and  _289
REMARK  125  A    between atoms: _289  and  _290
REMARK  126  A    between atoms: _290  and  _291
REMARK  127  A    between atoms: _291  and  _292
REMARK  128  A    between atoms: _301  and  _303
REMARK  129  A    between atoms: _303  and  _304
REMARK  130  A    between atoms: _303  and  _306
REMARK  131  A    between atoms: _306  and  _307
REMARK  132  A    between atoms: _307  and  _308
REMARK  133  A    between atoms: _310  and  _312
REMARK  134  A    between atoms: _312  and  _313
REMARK  135  A    between atoms: _312  and  _315
REMARK  136  A    between atoms: _315  and  _316
REMARK  137  A    between atoms: _319  and  _321
REMARK  138  A    between atoms: _321  and  _322
REMARK  139  A    between atoms: _321  and  _324
REMARK  140  A    between atoms: _324  and  _325
REMARK  141  A    between atoms: _331  and  _333
REMARK  142  A    between atoms: _333  and  _334
REMARK  143  A    between atoms: _333  and  _336
REMARK  144  A    between atoms: _336  and  _337
REMARK  145  A    between atoms: _339  and  _341
REMARK  146  A    between atoms: _341  and  _342
REMARK  147  A    between atoms: _341  and  _344
REMARK  148  A    between atoms: _344  and  _345
REMARK  149  A    between atoms: _348  and  _350
REMARK  150  A    between atoms: _350  and  _351
REMARK  151  A    between atoms: _353  and  _355
REMARK  152  A    between atoms: _355  and  _356
REMARK  153  A    between atoms: _355  and  _358
REMARK  154  A    between atoms: _358  and  _359
REMARK  155  A    between atoms: _362  and  _364
REMARK  156  A    between atoms: _364  and  _365
REMARK  157  A    between atoms: _364  and  _367
REMARK  158  A    between atoms: _367  and  _368
REMARK  159  A    between atoms: _368  and  _369
REMARK  160  A    between atoms: _371  and  _373
REMARK  161  A    between atoms: _373  and  _374
REMARK  162  A    between atoms: _373  and  _376
REMARK  163  A    between atoms: _376  and  _377
REMARK  164  A    between atoms: _382  and  _384
REMARK  165  A    between atoms: _384  and  _385
REMARK  166  A    between atoms: _388  and  _390
REMARK  167  A    between atoms: _390  and  _391
REMARK  168  A    between atoms: _393  and  _395
REMARK  169  A    between atoms: _395  and  _396
REMARK  170  A    between atoms: _395  and  _398
REMARK  171  A    between atoms: _398  and  _399
REMARK  172  A    between atoms: _405  and  _407
REMARK  173  A    between atoms: _407  and  _408
REMARK  174  A    between atoms: _410  and  _412
REMARK  175  A    between atoms: _412  and  _413
REMARK  176  A    between atoms: _412  and  _415
REMARK  177  A    between atoms: _415  and  _416
REMARK  178  A    between atoms: _419  and  _421
REMARK  179  A    between atoms: _421  and  _422
REMARK  180  A    between atoms: _421  and  _424
REMARK  181  A    between atoms: _424  and  _425
REMARK  182  A    between atoms: _428  and  _430
REMARK  183  A    between atoms: _430  and  _431
REMARK  184  A    between atoms: _430  and  _433
REMARK  185  A    between atoms: _436  and  _438
REMARK  186  A    between atoms: _438  and  _439
REMARK  187  A    between atoms: _438  and  _441
REMARK  188  A    between atoms: _441  and  _442
REMARK  189  A    between atoms: _445  and  _447
REMARK  190  A    between atoms: _447  and  _448
REMARK  191  A    between atoms: _447  and  _450
REMARK  192  A    between atoms: _450  and  _451
REMARK  193  A    between atoms: _453  and  _455
REMARK  194  A    between atoms: _455  and  _456
REMARK  195  A    between atoms: _455  and  _458
REMARK  196  A    between atoms: _458  and  _459
REMARK  197  A    between atoms: _459  and  _460
REMARK  198  A    between atoms: _460  and  _461
REMARK  199  A    between atoms: _461  and  _462
REMARK  200  A    between atoms: _466  and  _468
REMARK  201  A    between atoms: _468  and  _469
REMARK  202  A    between atoms: _471  and  _473
REMARK  203  A    between atoms: _473  and  _474
REMARK  204  A    between atoms: _477  and  _479
REMARK  205  A    between atoms: _479  and  _480
REMARK  206  A    between atoms: _479  and  _482
REMARK  207  A    between atoms: _483  and  _484
REMARK  208  A    between atoms: _487  and  _489
REMARK  209  A    between atoms: _489  and  _490
REMARK  210  A    between atoms: _489  and  _492
REMARK  211  A    between atoms: _492  and  _493
REMARK  212  A    between atoms: _493  and  _494
REMARK  213  A    between atoms: _494  and  _495
REMARK  214  A    between atoms: _504  and  _506
REMARK  215  A    between atoms: _506  and  _507
REMARK  216  A    between atoms: _510  and  _512
REMARK  217  A    between atoms: _512  and  _513
REMARK  218  A    between atoms: _512  and  _515
REMARK  219  A    between atoms: _515  and  _516
REMARK  220  A    between atoms: _519  and  _521
REMARK  221  A    between atoms: _521  and  _522
REMARK  222  A    between atoms: _521  and  _524
REMARK  223  A    between atoms: _524  and  _525
REMARK  224  A    between atoms: _528  and  _530
REMARK  225  A    between atoms: _530  and  _531
REMARK  226  A    between atoms: _530  and  _533
REMARK  227  A    between atoms: _533  and  _534
REMARK  228  A    between atoms: _537  and  _539
REMARK  229  A    between atoms: _539  and  _540
REMARK  230  A    between atoms: _539  and  _542
REMARK  231  A    between atoms: _542  and  _543
REMARK  232  A    between atoms: _543  and  _544
REMARK  233  A    between atoms: _544  and  _545
REMARK  234  A    between atoms: _545  and  _546
REMARK  235  A    between atoms: _550  and  _552
REMARK  236  A    between atoms: _552  and  _553
REMARK  237  A    between atoms: _552  and  _555
REMARK  238  A    between atoms: _555  and  _556
REMARK  239  A    between atoms: _559  and  _561
REMARK  240  A    between atoms: _561  and  _562
REMARK  241  A    between atoms: _561  and  _564
REMARK  242  A    between atoms: _564  and  _565
REMARK  243  A    between atoms: _565  and  _566
REMARK  244  A    between atoms: _569  and  _570
REMARK  245  A    between atoms: _575  and  _577
REMARK  246  A    between atoms: _577  and  _578
REMARK  247  A    between atoms: _577  and  _580
REMARK  248  A    between atoms: _580  and  _581
REMARK  249  A    between atoms: _584  and  _586
REMARK  250  A    between atoms: _586  and  _587
REMARK  251  A    between atoms: _586  and  _589
REMARK  252  A    between atoms: _589  and  _590
REMARK  253  A    between atoms: _593  and  _595
REMARK  254  A    between atoms: _595  and  _596
REMARK  255  A    between atoms: _595  and  _598
REMARK  256  A    between atoms: _598  and  _599
REMARK  257  A    between atoms: _599  and  _600
REMARK  258  A    between atoms: _600  and  _601
REMARK  259  A    between atoms: _610  and  _612
REMARK  260  A    between atoms: _612  and  _613
REMARK  261  A    between atoms: _612  and  _615
REMARK  262  A    between atoms: _615  and  _616
REMARK  263  A    between atoms: _616  and  _617
REMARK  264  A    between atoms: _619  and  _621
REMARK  265  A    between atoms: _621  and  _622
REMARK  266  A    between atoms: _621  and  _624
REMARK  267  A    between atoms: _624  and  _625
REMARK                            x       y       z     vdW  Elec       q    Type
REMARK                         _______ _______ _______ _____ _____    ______ ____
ROOT
ATOM      1  CA  PHE A   2      32.224  17.513  95.614  0.00  0.00    +0.153 C 
ENDROOT
BRANCH   1   2
ATOM      2  C   PHE A   2      30.718  17.365  95.576  0.00  0.00    +0.244 C 
ATOM      3  O   PHE A   2      30.205  16.414  96.176  0.00  0.00    -0.273 OA
ATOM      4  N   PRO A   3      30.009  18.287  94.926  0.00  0.00    -0.273 N 
ATOM      5  CA  PRO A   3      28.535  18.180  94.850  0.00  0.00    +0.140 C 
ATOM      6  CB  PRO A   3      28.175  19.366  93.984  0.00  0.00    +0.030 C 
ATOM      7  CG  PRO A   3      29.282  20.352  94.126  0.00  0.00    +0.024 C 
ATOM      8  CD  PRO A   3      30.535  19.542  94.357  0.00  0.00    +0.094 C 
BRANCH   5   9
ATOM      9  C   PRO A   3      28.058  16.868  94.245  0.00  0.00    +0.227 C 
ATOM     10  O   PRO A   3      28.718  16.270  93.392  0.00  0.00    -0.286 OA
ENDBRANCH   5   9
ENDBRANCH   1   2
BRANCH   1  12
ATOM     11  C   THR A   1      33.826  18.877  96.799  0.00  0.00    +0.241 C 
ATOM     12  N   PHE A   2      32.649  18.260  96.781  0.00  0.00    -0.297 N 
ATOM     13  H   PHE A   2      32.027  18.314  97.613  0.00  0.00    +0.150 HD
ATOM     14  O   THR A   1      34.594  18.946  95.820  0.00  0.00    -0.274 OA
BRANCH  11  15
ATOM     15  CA  THR A   1      34.239  19.573  98.093  0.00  0.00    +0.172 C 
BRANCH  15  16
ATOM     16  N   THR A   1      33.318  19.331  99.196  0.00  0.00    -0.236 NA
ATOM     17  H   THR A   1      33.186  18.356  99.532  0.00  0.00    +0.142 HD
ENDBRANCH  15  16
BRANCH  15  18
ATOM     18  CB  THR A   1      35.668  19.118  98.447  0.00  0.00    +0.135 C 
ATOM     19  CG2 THR A   1      36.211  19.846  99.659  0.00  0.00    +0.034 C 
BRANCH  18  20
ATOM     20  OG1 THR A   1      35.747  17.720  98.706  0.00  0.00    -0.383 OA
ATOM     21  HG1 THR A   1      35.157  17.493  99.468  0.00  0.00    +0.210 HD
ENDBRANCH  18  20
ENDBRANCH  15  18
ENDBRANCH  11  15
ENDBRANCH   1  12
BRANCH   1  22
ATOM     22  CB  PHE A   2      32.882  16.121  95.560  0.00  0.00    +0.055 C 
BRANCH  22  23
ATOM     23  CG  PHE A   2      32.771  15.506  94.166  0.00  0.00    -0.020 A 
ATOM     24  CD2 PHE A   2      32.037  14.362  93.966  0.00  0.00    -0.004 A 
ATOM     25  CE2 PHE A   2      31.947  13.778  92.703  0.00  0.00    -0.000 A 
ATOM     26  CZ  PHE A   2      32.545  14.425  91.658  0.00  0.00    -0.000 A 
ATOM     27  CE1 PHE A   2      33.304  15.574  91.849  0.00  0.00    -0.000 A 
ATOM     28  CD1 PHE A   2      33.418  16.084  93.101  0.00  0.00    -0.004 A 
ENDBRANCH  22  23
ENDBRANCH   1  22
TORSDOF 9
REMARK  Name = ../refined-set-2016/1fd0/1fd0_pocket.pdb
REMARK  267 active torsions:
REMARK  status: ('A' for Active; 'I' for Inactive)
REMARK    1  A    between atoms: _1  and  _3
REMARK    2  A    between atoms: _3  and  _4
REMARK    3  A    between atoms: _3  and  _6
REMARK    4  A    between atoms: _6  and  _7
REMARK    5  A    between atoms: _10  and  _12
REMARK    6  A    between atoms: _12  and  _13
REMARK    7  A    between atoms: _12  and  _15
REMARK    8  A    between atoms: _15  and  _16
REMARK    9  A    between atoms: _23  and  _24
REMARK   10  A    between atoms: _29  and  _31
REMARK   11  A    between atoms: _31  and  _32
REMARK   12  A    between atoms: _31  and  _34
REMARK   13  A    between atoms: _34  and  _35
REMARK   14  A    between atoms: _38  and  _40
REMARK   15  A    between atoms: _40  and  _41
REMARK   16  A    between atoms: _40  and  _43
REMARK   17  A    between atoms: _43  and  _44
REMARK   18  A    between atoms: _47  and  _49
REMARK   19  A    between atoms: _49  and  _50
REMARK   20  A    between atoms: _49  and  _52
REMARK   21  A    between atoms: _52  and  _53
REMARK   22  A    between atoms: _63  and  _65
REMARK   23  A    between atoms: _65  and  _66
REMARK   24  A    between atoms: _65  and  _68
REMARK   25  A    between atoms: _68  and  _69
REMARK   26  A    between atoms: _69  and  _70
REMARK   27  A    between atoms: _70  and  _71
REMARK   28  A    between atoms: _71  and  _72
REMARK   29  A    between atoms: _76  and  _78
REMARK   30  A    between atoms: _78  and  _79
REMARK   31  A    between atoms: _78  and  _81
REMARK   32  A    between atoms: _81  and  _82
REMARK   33  A    between atoms: _88  and  _90
REMARK   34  A    between atoms: _90  and  _91
REMARK   35  A    between atoms: _90  and  _93
REMARK   36  A    between atoms: _93  and  _94
REMARK   37  A    between atoms: _96  and  _98
REMARK   38  A    between atoms: _98  and  _99
REMARK   39  A    between atoms: _98  and  _101
REMARK   40  A    between atoms: _101  and  _102
REMARK   41  A    between atoms: _102  and  _103
REMARK   42  A    between atoms: _106  and  _108
REMARK   43  A    between atoms: _108  and  _109
REMARK   44  A    between atoms: _108  and  _111
REMARK   45  A    between atoms: _111  and  _112
REMARK   46  A    between atoms: _115  and  _117
REMARK   47  A    between atoms: _117  and  _118
REMARK   48  A    between atoms: _121  and  _123
REMARK   49  A    between atoms: _123  and  _124
REMARK   50  A    between atoms: _123  and  _126
REMARK   51  A    between atoms: _126  and  _127
REMARK   52  A    between atoms: _130  and  _132
REMARK   53  A    between atoms: _132  and  _133
REMARK   54  A    between atoms: _132  and  _135
REMARK   55  A    between atoms: _135  and  _136
REMARK   56  A    between atoms: _136  and  _137
REMARK   57  A    between atoms: _137  and  _138
REMARK   58  A    between atoms: _138  and  _139
REMARK   59  A    between atoms: _143  and  _145
REMARK   60  A    between atoms: _145  and  _146
REMARK   61  A    between atoms: _145  and  _148
REMARK   62  A    between atoms: _150  and  _152
REMARK   63  A    between atoms: _152  and  _153
REMARK   64  A    between atoms: _152  and  _155
REMARK   65  A    between atoms: _155  and  _156
REMARK   66  A    between atoms: _159  and  _161
REMARK   67  A    between atoms: _161  and  _162
REMARK   68  A    between atoms: _161  and  _164
REMARK   69  A    between atoms: _164  and  _165
REMARK   70  A    between atoms: _165  and  _166
REMARK   71  A    between atoms: _166  and  _167
REMARK   72  A    between atoms: _167  and  _168
REMARK   73  A    between atoms: _172  and  _174
REMARK   74  A    between atoms: _174  and  _175
REMARK   75  A    between atoms: _174  and  _177
REMARK   76  A    between atoms: _177  and  _178
REMARK   77  A    between atoms: _181  and  _183
REMARK   78  A    between atoms: _183  and  _184
REMARK   79  A    between atoms: _183  and  _186
REMARK   80  A    between atoms: _188  and  _190
REMARK   81  A    between atoms: _190  and  _191
REMARK   82  A    between atoms: _190  and  _193
REMARK   83  A    between atoms: _193  and  _194
REMARK   84  A    between atoms: _197  and  _199
REMARK   85  A    between atoms: _199  and  _200
REMARK   86  A    between atoms: _199  and  _202
REMARK   87  A    between atoms: _202  and  _203
REMARK   88  A    between atoms: _206  and  _208
REMARK   89  A    between atoms: _208  and  _209
REMARK   90  A    between atoms: _208  and  _211
REMARK   91  A    between atoms: _211  and  _212
REMARK   92  A    between atoms: _215  and  _217
REMARK   93  A    between atoms: _217  and  _218
REMARK   94  A    between atoms: _217  and  _220
REMARK   95  A    between atoms: _220  and  _221
REMARK   96  A    between atoms: _224  and  _226
REMARK   97  A    between atoms: _226  and  _227
REMARK   98  A    between atoms: _226  and  _229
REMARK   99  A    between atoms: _229  and  _230
REMARK  100  A    between atoms: _230  and  _231
REMARK  101  A    between atoms: _233  and  _235
REMARK  102  A    between atoms: _235  and  _236
REMARK  103  A    between atoms: _235  and  _238
REMARK  104  A    between atoms: _238  and  _239
REMARK  105  A    between atoms: _242  and  _244
REMARK  106  A    between atoms: _244  and  _245
REMARK  107  A    between atoms: _244  and  _247
REMARK  108  A    between atoms: _247  and  _248
REMARK  109  A    between atoms: _248  and  _249
REMARK  110  A    between atoms: _249  and  _250
REMARK  111  A    between atoms: _259  and  _261
REMARK  112  A    between atoms: _261  and  _262
REMARK  113  A    between atoms: _261  and  _264
REMARK  114  A    between atoms: _264  and  _265
REMARK  115  A    between atoms: _268  and  _270
REMARK  116  A    between atoms: _270  and  _271
REMARK  117  A    between atoms: _270  and  _273
REMARK  118  A    between atoms: _275  and  _277
REMARK  119  A    between atoms: _277  and  _278
REMARK  120  A    between atoms: _277  and  _280
REMARK  121  A    between atoms: _280  and  _281
REMARK  122  A    between atoms: _284  and  _286
REMARK  123  A    between atoms: _286  and  _287
REMARK  124  A    between atoms: _286  and  _289
REMARK  125  A    between atoms: _289  and  _290
REMARK  126  A    between atoms: _290  and  _291
REMARK  127  A    between atoms: _291  and  _292
REMARK  128  A    between atoms: _301  and  _303
REMARK  129  A    between atoms: _303  and  _304
REMARK  130  A    between atoms: _303  and  _306
REMARK  131  A    between atoms: _306  and  _307
REMARK  132  A    between atoms: _307  and  _308
REMARK  133  A    between atoms: _310  and  _312
REMARK  134  A    between atoms: _312  and  _313
REMARK  135  A    between atoms: _312  and  _315
REMARK  136  A    between atoms: _315  and  _316
REMARK  137  A    between atoms: _319  and  _321
REMARK  138  A    between atoms: _321  and  _322
REMARK  139  A    between atoms: _321  and  _324
REMARK  140  A    between atoms: _324  and  _325
REMARK  141  A    between atoms: _331  and  _333
REMARK  142  A    between atoms: _333  and  _334
REMARK  143  A    between atoms: _333  and  _336
REMARK  144  A    between atoms: _336  and  _337
REMARK  145  A    between atoms: _339  and  _341
REMARK  146  A    between atoms: _341  and  _342
REMARK  147  A    between atoms: _341  and  _344
REMARK  148  A    between atoms: _344  and  _345
REMARK  149  A    between atoms: _348  and  _350
REMARK  150  A    between atoms: _350  and  _351
REMARK  151  A    between atoms: _353  and  _355
REMARK  152  A    between atoms: _355  and  _356
REMARK  153  A    between atoms: _355  and  _358
REMARK  154  A    between atoms: _358  and  _359
REMARK  155  A    between atoms: _362  and  _364
REMARK  156  A    between atoms: _364  and  _365
REMARK  157  A    between atoms: _364  and  _367
REMARK  158  A    between atoms: _367  and  _368
REMARK  159  A    between atoms: _368  and  _369
REMARK  160  A    between atoms: _371  and  _373
REMARK  161  A    between atoms: _373  and  _374
REMARK  162  A    between atoms: _373  and  _376
REMARK  163  A    between atoms: _376  and  _377
REMARK  164  A    between atoms: _382  and  _384
REMARK  165  A    between atoms: _384  and  _385
REMARK  166  A    between atoms: _388  and  _390
REMARK  167  A    between atoms: _390  and  _391
REMARK  168  A    between atoms: _393  and  _395
REMARK  169  A    between atoms: _395  and  _396
REMARK  170  A    between atoms: _395  and  _398
REMARK  171  A    between atoms: _398  and  _399
REMARK  172  A    between atoms: _405  and  _407
REMARK  173  A    between atoms: _407  and  _408
REMARK  174  A    between atoms: _410  and  _412
REMARK  175  A    between atoms: _412  and  _413
REMARK  176  A    between atoms: _412  and  _415
REMARK  177  A    between atoms: _415  and  _416
REMARK  178  A    between atoms: _419  and  _421
REMARK  179  A    between atoms: _421  and  _422
REMARK  180  A    between atoms: _421  and  _424
REMARK  181  A    between atoms: _424  and  _425
REMARK  182  A    between atoms: _428  and  _430
REMARK  183  A    between atoms: _430  and  _431
REMARK  184  A    between atoms: _430  and  _433
REMARK  185  A    between atoms: _436  and  _438
REMARK  186  A    between atoms: _438  and  _439
REMARK  187  A    between atoms: _438  and  _441
REMARK  188  A    between atoms: _441  and  _442
REMARK  189  A    between atoms: _445  and  _447
REMARK  190  A    between atoms: _447  and  _448
REMARK  191  A    between atoms: _447  and  _450
REMARK  192  A    between atoms: _450  and  _451
REMARK  193  A    between atoms: _453  and  _455
REMARK  194  A    between atoms: _455  and  _456
REMARK  195  A    between atoms: _455  and  _458
REMARK  196  A    between atoms: _458  and  _459
REMARK  197  A    between atoms: _459  and  _460
REMARK  198  A    between atoms: _460  and  _461
REMARK  199  A    between atoms: _461  and  _462
REMARK  200  A    between atoms: _466  and  _468
REMARK  201  A    between atoms: _468  and  _469
REMARK  202  A    between atoms: _471  and  _473
REMARK  203  A    between atoms: _473  and  _474
REMARK  204  A    between atoms: _477  and  _479
REMARK  205  A    between atoms: _479  and  _480
REMARK  206  A    between atoms: _479  and  _482
REMARK  207  A    between atoms: _483  and  _484
REMARK  208  A    between atoms: _487  and  _489
REMARK  209  A    between atoms: _489  and  _490
REMARK  210  A    between atoms: _489  and  _492
REMARK  211  A    between atoms: _492  and  _493
REMARK  212  A    between atoms: _493  and  _494
REMARK  213  A    between atoms: _494  and  _495
REMARK  214  A    between atoms: _504  and  _506
REMARK  215  A    between atoms: _506  and  _507
REMARK  216  A    between atoms: _510  and  _512
REMARK  217  A    between atoms: _512  and  _513
REMARK  218  A    between atoms: _512  and  _515
REMARK  219  A    between atoms: _515  and  _516
REMARK  220  A    between atoms: _519  and  _521
REMARK  221  A    between atoms: _521  and  _522
REMARK  222  A    between atoms: _521  and  _524
REMARK  223  A    between atoms: _524  and  _525
REMARK  224  A    between atoms: _528  and  _530
REMARK  225  A    between atoms: _530  and  _531
REMARK  226  A    between atoms: _530  and  _533
REMARK  227  A    between atoms: _533  and  _534
REMARK  228  A    between atoms: _537  and  _539
REMARK  229  A    between atoms: _539  and  _540
REMARK  230  A    between atoms: _539  and  _542
REMARK  231  A    between atoms: _542  and  _543
REMARK  232  A    between atoms: _543  and  _544
REMARK  233  A    between atoms: _544  and  _545
REMARK  234  A    between atoms: _545  and  _546
REMARK  235  A    between atoms: _550  and  _552
REMARK  236  A    between atoms: _552  and  _553
REMARK  237  A    between atoms: _552  and  _555
REMARK  238  A    between atoms: _555  and  _556
REMARK  239  A    between atoms: _559  and  _561
REMARK  240  A    between atoms: _561  and  _562
REMARK  241  A    between atoms: _561  and  _564
REMARK  242  A    between atoms: _564  and  _565
REMARK  243  A    between atoms: _565  and  _566
REMARK  244  A    between atoms: _569  and  _570
REMARK  245  A    between atoms: _575  and  _577
REMARK  246  A    between atoms: _577  and  _578
REMARK  247  A    between atoms: _577  and  _580
REMARK  248  A    between atoms: _580  and  _581
REMARK  249  A    between atoms: _584  and  _586
REMARK  250  A    between atoms: _586  and  _587
REMARK  251  A    between atoms: _586  and  _589
REMARK  252  A    between atoms: _589  and  _590
REMARK  253  A    between atoms: _593  and  _595
REMARK  254  A    between atoms: _595  and  _596
REMARK  255  A    between atoms: _595  and  _598
REMARK  256  A    between atoms: _598  and  _599
REMARK  257  A    between atoms: _599  and  _600
REMARK  258  A    between atoms: _600  and  _601
REMARK  259  A    between atoms: _610  and  _612
REMARK  260  A    between atoms: _612  and  _613
REMARK  261  A    between atoms: _612  and  _615
REMARK  262  A    between atoms: _615  and  _616
REMARK  263  A    between atoms: _616  and  _617
REMARK  264  A    between atoms: _619  and  _621
REMARK  265  A    between atoms: _621  and  _622
REMARK  266  A    between atoms: _621  and  _624
REMARK  267  A    between atoms: _624  and  _625
REMARK                            x       y       z     vdW  Elec       q    Type
REMARK                         _______ _______ _______ _____ _____    ______ ____
ROOT
ATOM      1  CA  LEU A   1      23.686  19.910  90.319  0.00  0.00    +0.133 C 
ENDROOT
BRANCH   1   2
ATOM      2  N   LEU A   1      23.251  19.009  91.354  0.00  0.00    -0.239 NA
ATOM      3  H   LEU A   1      23.487  18.000  91.265  0.00  0.00    +0.142 HD
ENDBRANCH   1   2
BRANCH   1   4
ATOM      4  C   LEU A   1      22.658  20.174  89.243  0.00  0.00    +0.224 C 
ATOM      5  O   LEU A   1      21.990  19.254  88.783  0.00  0.00    -0.287 OA
ENDBRANCH   1   4
BRANCH   1   6
ATOM      6  CB  LEU A   1      24.941  19.297  89.653  0.00  0.00    +0.025 C 
BRANCH   6   7
ATOM      7  CG  LEU A   1      26.175  19.214  90.559  0.00  0.00    +0.002 C 
ATOM      8  CD2 LEU A   1      26.729  20.593  90.799  0.00  0.00    +0.000 C 
ATOM      9  CD1 LEU A   1      27.219  18.333  89.903  0.00  0.00    +0.000 C 
ENDBRANCH   6   7
ENDBRANCH   1   6
TORSDOF 4
REMARK  Name = ../refined-set-2016/1fd0/1fd0_pocket.pdb
REMARK  267 active torsions:
REMARK  status: ('A' for Active; 'I' for Inactive)
REMARK    1  A    between atoms: _1  and  _3
REMARK    2  A    between atoms: _3  and  _4
REMARK    3  A    between atoms: _3  and  _6
REMARK    4  A    between atoms: _6  and  _7
REMARK    5  A    between atoms: _10  and  _12
REMARK    6  A    between atoms: _12  and  _13
REMARK    7  A    between atoms: _12  and  _15
REMARK    8  A    between atoms: _15  and  _16
REMARK    9  A    between atoms: _23  and  _24
REMARK   10  A    between atoms: _29  and  _31
REMARK   11  A    between atoms: _31  and  _32
REMARK   12  A    between atoms: _31  and  _34
REMARK   13  A    between atoms: _34  and  _35
REMARK   14  A    between atoms: _38  and  _40
REMARK   15  A    between atoms: _40  and  _41
REMARK   16  A    between atoms: _40  and  _43
REMARK   17  A    between atoms: _43  and  _44
REMARK   18  A    between atoms: _47  and  _49
REMARK   19  A    between atoms: _49  and  _50
REMARK   20  A    between atoms: _49  and  _52
REMARK   21  A    between atoms: _52  and  _53
REMARK   22  A    between atoms: _63  and  _65
REMARK   23  A    between atoms: _65  and  _66
REMARK   24  A    between atoms: _65  and  _68
REMARK   25  A    between atoms: _68  and  _69
REMARK   26  A    between atoms: _69  and  _70
REMARK   27  A    between atoms: _70  and  _71
REMARK   28  A    between atoms: _71  and  _72
REMARK   29  A    between atoms: _76  and  _78
REMARK   30  A    between atoms: _78  and  _79
REMARK   31  A    between atoms: _78  and  _81
REMARK   32  A    between atoms: _81  and  _82
REMARK   33  A    between atoms: _88  and  _90
REMARK   34  A    between atoms: _90  and  _91
REMARK   35  A    between atoms: _90  and  _93
REMARK   36  A    between atoms: _93  and  _94
REMARK   37  A    between atoms: _96  and  _98
REMARK   38  A    between atoms: _98  and  _99
REMARK   39  A    between atoms: _98  and  _101
REMARK   40  A    between atoms: _101  and  _102
REMARK   41  A    between atoms: _102  and  _103
REMARK   42  A    between atoms: _106  and  _108
REMARK   43  A    between atoms: _108  and  _109
REMARK   44  A    between atoms: _108  and  _111
REMARK   45  A    between atoms: _111  and  _112
REMARK   46  A    between atoms: _115  and  _117
REMARK   47  A    between atoms: _117  and  _118
REMARK   48  A    between atoms: _121  and  _123
REMARK   49  A    between atoms: _123  and  _124
REMARK   50  A    between atoms: _123  and  _126
REMARK   51  A    between atoms: _126  and  _127
REMARK   52  A    between atoms: _130  and  _132
REMARK   53  A    between atoms: _132  and  _133
REMARK   54  A    between atoms: _132  and  _135
REMARK   55  A    between atoms: _135  and  _136
REMARK   56  A    between atoms: _136  and  _137
REMARK   57  A    between atoms: _137  and  _138
REMARK   58  A    between atoms: _138  and  _139
REMARK   59  A    between atoms: _143  and  _145
REMARK   60  A    between atoms: _145  and  _146
REMARK   61  A    between atoms: _145  and  _148
REMARK   62  A    between atoms: _150  and  _152
REMARK   63  A    between atoms: _152  and  _153
REMARK   64  A    between atoms: _152  and  _155
REMARK   65  A    between atoms: _155  and  _156
REMARK   66  A    between atoms: _159  and  _161
REMARK   67  A    between atoms: _161  and  _162
REMARK   68  A    between atoms: _161  and  _164
REMARK   69  A    between atoms: _164  and  _165
REMARK   70  A    between atoms: _165  and  _166
REMARK   71  A    between atoms: _166  and  _167
REMARK   72  A    between atoms: _167  and  _168
REMARK   73  A    between atoms: _172  and  _174
REMARK   74  A    between atoms: _174  and  _175
REMARK   75  A    between atoms: _174  and  _177
REMARK   76  A    between atoms: _177  and  _178
REMARK   77  A    between atoms: _181  and  _183
REMARK   78  A    between atoms: _183  and  _184
REMARK   79  A    between atoms: _183  and  _186
REMARK   80  A    between atoms: _188  and  _190
REMARK   81  A    between atoms: _190  and  _191
REMARK   82  A    between atoms: _190  and  _193
REMARK   83  A    between atoms: _193  and  _194
REMARK   84  A    between atoms: _197  and  _199
REMARK   85  A    between atoms: _199  and  _200
REMARK   86  A    between atoms: _199  and  _202
REMARK   87  A    between atoms: _202  and  _203
REMARK   88  A    between atoms: _206  and  _208
REMARK   89  A    between atoms: _208  and  _209
REMARK   90  A    between atoms: _208  and  _211
REMARK   91  A    between atoms: _211  and  _212
REMARK   92  A    between atoms: _215  and  _217
REMARK   93  A    between atoms: _217  and  _218
REMARK   94  A    between atoms: _217  and  _220
REMARK   95  A    between atoms: _220  and  _221
REMARK   96  A    between atoms: _224  and  _226
REMARK   97  A    between atoms: _226  and  _227
REMARK   98  A    between atoms: _226  and  _229
REMARK   99  A    between atoms: _229  and  _230
REMARK  100  A    between atoms: _230  and  _231
REMARK  101  A    between atoms: _233  and  _235
REMARK  102  A    between atoms: _235  and  _236
REMARK  103  A    between atoms: _235  and  _238
REMARK  104  A    between atoms: _238  and  _239
REMARK  105  A    between atoms: _242  and  _244
REMARK  106  A    between atoms: _244  and  _245
REMARK  107  A    between atoms: _244  and  _247
REMARK  108  A    between atoms: _247  and  _248
REMARK  109  A    between atoms: _248  and  _249
REMARK  110  A    between atoms: _249  and  _250
REMARK  111  A    between atoms: _259  and  _261
REMARK  112  A    between atoms: _261  and  _262
REMARK  113  A    between atoms: _261  and  _264
REMARK  114  A    between atoms: _264  and  _265
REMARK  115  A    between atoms: _268  and  _270
REMARK  116  A    between atoms: _270  and  _271
REMARK  117  A    between atoms: _270  and  _273
REMARK  118  A    between atoms: _275  and  _277
REMARK  119  A    between atoms: _277  and  _278
REMARK  120  A    between atoms: _277  and  _280
REMARK  121  A    between atoms: _280  and  _281
REMARK  122  A    between atoms: _284  and  _286
REMARK  123  A    between atoms: _286  and  _287
REMARK  124  A    between atoms: _286  and  _289
REMARK  125  A    between atoms: _289  and  _290
REMARK  126  A    between atoms: _290  and  _291
REMARK  127  A    between atoms: _291  and  _292
REMARK  128  A    between atoms: _301  and  _303
REMARK  129  A    between atoms: _303  and  _304
REMARK  130  A    between atoms: _303  and  _306
REMARK  131  A    between atoms: _306  and  _307
REMARK  132  A    between atoms: _307  and  _308
REMARK  133  A    between atoms: _310  and  _312
REMARK  134  A    between atoms: _312  and  _313
REMARK  135  A    between atoms: _312  and  _315
REMARK  136  A    between atoms: _315  and  _316
REMARK  137  A    between atoms: _319  and  _321
REMARK  138  A    between atoms: _321  and  _322
REMARK  139  A    between atoms: _321  and  _324
REMARK  140  A    between atoms: _324  and  _325
REMARK  141  A    between atoms: _331  and  _333
REMARK  142  A    between atoms: _333  and  _334
REMARK  143  A    between atoms: _333  and  _336
REMARK  144  A    between atoms: _336  and  _337
REMARK  145  A    between atoms: _339  and  _341
REMARK  146  A    between atoms: _341  and  _342
REMARK  147  A    between atoms: _341  and  _344
REMARK  148  A    between atoms: _344  and  _345
REMARK  149  A    between atoms: _348  and  _350
REMARK  150  A    between atoms: _350  and  _351
REMARK  151  A    between atoms: _353  and  _355
REMARK  152  A    between atoms: _355  and  _356
REMARK  153  A    between atoms: _355  and  _358
REMARK  154  A    between atoms: _358  and  _359
REMARK  155  A    between atoms: _362  and  _364
REMARK  156  A    between atoms: _364  and  _365
REMARK  157  A    between atoms: _364  and  _367
REMARK  158  A    between atoms: _367  and  _368
REMARK  159  A    between atoms: _368  and  _369
REMARK  160  A    between atoms: _371  and  _373
REMARK  161  A    between atoms: _373  and  _374
REMARK  162  A    between atoms: _373  and  _376
REMARK  163  A    between atoms: _376  and  _377
REMARK  164  A    between atoms: _382  and  _384
REMARK  165  A    between atoms: _384  and  _385
REMARK  166  A    between atoms: _388  and  _390
REMARK  167  A    between atoms: _390  and  _391
REMARK  168  A    between atoms: _393  and  _395
REMARK  169  A    between atoms: _395  and  _396
REMARK  170  A    between atoms: _395  and  _398
REMARK  171  A    between atoms: _398  and  _399
REMARK  172  A    between atoms: _405  and  _407
REMARK  173  A    between atoms: _407  and  _408
REMARK  174  A    between atoms: _410  and  _412
REMARK  175  A    between atoms: _412  and  _413
REMARK  176  A    between atoms: _412  and  _415
REMARK  177  A    between atoms: _415  and  _416
REMARK  178  A    between atoms: _419  and  _421
REMARK  179  A    between atoms: _421  and  _422
REMARK  180  A    between atoms: _421  and  _424
REMARK  181  A    between atoms: _424  and  _425
REMARK  182  A    between atoms: _428  and  _430
REMARK  183  A    between atoms: _430  and  _431
REMARK  184  A    between atoms: _430  and  _433
REMARK  185  A    between atoms: _436  and  _438
REMARK  186  A    between atoms: _438  and  _439
REMARK  187  A    between atoms: _438  and  _441
REMARK  188  A    between atoms: _441  and  _442
REMARK  189  A    between atoms: _445  and  _447
REMARK  190  A    between atoms: _447  and  _448
REMARK  191  A    between atoms: _447  and  _450
REMARK  192  A    between atoms: _450  and  _451
REMARK  193  A    between atoms: _453  and  _455
REMARK  194  A    between atoms: _455  and  _456
REMARK  195  A    between atoms: _455  and  _458
REMARK  196  A    between atoms: _458  and  _459
REMARK  197  A    between atoms: _459  and  _460
REMARK  198  A    between atoms: _460  and  _461
REMARK  199  A    between atoms: _461  and  _462
REMARK  200  A    between atoms: _466  and  _468
REMARK  201  A    between atoms: _468  and  _469
REMARK  202  A    between atoms: _471  and  _473
REMARK  203  A    between atoms: _473  and  _474
REMARK  204  A    between atoms: _477  and  _479
REMARK  205  A    between atoms: _479  and  _480
REMARK  206  A    between atoms: _479  and  _482
REMARK  207  A    between atoms: _483  and  _484
REMARK  208  A    between atoms: _487  and  _489
REMARK  209  A    between atoms: _489  and  _490
REMARK  210  A    between atoms: _489  and  _492
REMARK  211  A    between atoms: _492  and  _493
REMARK  212  A    between atoms: _493  and  _494
REMARK  213  A    between atoms: _494  and  _495
REMARK  214  A    between atoms: _504  and  _506
REMARK  215  A    between atoms: _506  and  _507
REMARK  216  A    between atoms: _510  and  _512
REMARK  217  A    between atoms: _512  and  _513
REMARK  218  A    between atoms: _512  and  _515
REMARK  219  A    between atoms: _515  and  _516
REMARK  220  A    between atoms: _519  and  _521
REMARK  221  A    between atoms: _521  and  _522
REMARK  222  A    between atoms: _521  and  _524
REMARK  223  A    between atoms: _524  and  _525
REMARK  224  A    between atoms: _528  and  _530
REMARK  225  A    between atoms: _530  and  _531
REMARK  226  A    between atoms: _530  and  _533
REMARK  227  A    between atoms: _533  and  _534
REMARK  228  A    between atoms: _537  and  _539
REMARK  229  A    between atoms: _539  and  _540
REMARK  230  A    between atoms: _539  and  _542
REMARK  231  A    between atoms: _542  and  _543
REMARK  232  A    between atoms: _543  and  _544
REMARK  233  A    between atoms: _544  and  _545
REMARK  234  A    between atoms: _545  and  _546
REMARK  235  A    between atoms: _550  and  _552
REMARK  236  A    between atoms: _552  and  _553
REMARK  237  A    between atoms: _552  and  _555
REMARK  238  A    between atoms: _555  and  _556
REMARK  239  A    between atoms: _559  and  _561
REMARK  240  A    between atoms: _561  and  _562
REMARK  241  A    between atoms: _561  and  _564
REMARK  242  A    between atoms: _564  and  _565
REMARK  243  A    between atoms: _565  and  _566
REMARK  244  A    between atoms: _569  and  _570
REMARK  245  A    between atoms: _575  and  _577
REMARK  246  A    between atoms: _577  and  _578
REMARK  247  A    between atoms: _577  and  _580
REMARK  248  A    between atoms: _580  and  _581
REMARK  249  A    between atoms: _584  and  _586
REMARK  250  A    between atoms: _586  and  _587
REMARK  251  A    between atoms: _586  and  _589
REMARK  252  A    between atoms: _589  and  _590
REMARK  253  A    between atoms: _593  and  _595
REMARK  254  A    between atoms: _595  and  _596
REMARK  255  A    between atoms: _595  and  _598
REMARK  256  A    between atoms: _598  and  _599
REMARK  257  A    between atoms: _599  and  _600
REMARK  258  A    between atoms: _600  and  _601
REMARK  259  A    between atoms: _610  and  _612
REMARK  260  A    between atoms: _612  and  _613
REMARK  261  A    between atoms: _612  and  _615
REMARK  262  A    between atoms: _615  and  _616
REMARK  263  A    between atoms: _616  and  _617
REMARK  264  A    between atoms: _619  and  _621
REMARK  265  A    between atoms: _621  and  _622
REMARK  266  A    between atoms: _621  and  _624
REMARK  267  A    between atoms: _624  and  _625
REMARK                            x       y       z     vdW  Elec       q    Type
REMARK                         _______ _______ _______ _____ _____    ______ ____
ROOT
ATOM      1  CA  LEU A   1      40.646  17.586  70.012  0.00  0.00    +0.133 C 
ENDROOT
BRANCH   1   2
ATOM      2  N   LEU A   1      40.833  16.702  68.864  0.00  0.00    -0.239 NA
ATOM      3  H   LEU A   1      40.631  17.082  67.917  0.00  0.00    +0.142 HD
ENDBRANCH   1   2
BRANCH   1   4
ATOM      4  C   LEU A   1      39.814  18.792  69.631  0.00  0.00    +0.224 C 
ATOM      5  O   LEU A   1      40.049  19.448  68.626  0.00  0.00    -0.287 OA
ENDBRANCH   1   4
BRANCH   1   6
ATOM      6  CB  LEU A   1      41.993  18.059  70.565  0.00  0.00    +0.025 C 
BRANCH   6   7
ATOM      7  CG  LEU A   1      41.917  18.801  71.925  0.00  0.00    +0.002 C 
ATOM      8  CD2 LEU A   1      41.440  17.906  73.041  0.00  0.00    +0.000 C 
ATOM      9  CD1 LEU A   1      43.265  19.419  72.215  0.00  0.00    +0.000 C 
ENDBRANCH   6   7
ENDBRANCH   1   6
TORSDOF 4
REMARK  Name = ../refined-set-2016/1fd0/1fd0_pocket.pdb
REMARK  267 active torsions:
REMARK  status: ('A' for Active; 'I' for Inactive)
REMARK    1  A    between atoms: _1  and  _3
REMARK    2  A    between atoms: _3  and  _4
REMARK    3  A    between atoms: _3  and  _6
REMARK    4  A    between atoms: _6  and  _7
REMARK    5  A    between atoms: _10  and  _12
REMARK    6  A    between atoms: _12  and  _13
REMARK    7  A    between atoms: _12  and  _15
REMARK    8  A    between atoms: _15  and  _16
REMARK    9  A    between atoms: _23  and  _24
REMARK   10  A    between atoms: _29  and  _31
REMARK   11  A    between atoms: _31  and  _32
REMARK   12  A    between atoms: _31  and  _34
REMARK   13  A    between atoms: _34  and  _35
REMARK   14  A    between atoms: _38  and  _40
REMARK   15  A    between atoms: _40  and  _41
REMARK   16  A    between atoms: _40  and  _43
REMARK   17  A    between atoms: _43  and  _44
REMARK   18  A    between atoms: _47  and  _49
REMARK   19  A    between atoms: _49  and  _50
REMARK   20  A    between atoms: _49  and  _52
REMARK   21  A    between atoms: _52  and  _53
REMARK   22  A    between atoms: _63  and  _65
REMARK   23  A    between atoms: _65  and  _66
REMARK   24  A    between atoms: _65  and  _68
REMARK   25  A    between atoms: _68  and  _69
REMARK   26  A    between atoms: _69  and  _70
REMARK   27  A    between atoms: _70  and  _71
REMARK   28  A    between atoms: _71  and  _72
REMARK   29  A    between atoms: _76  and  _78
REMARK   30  A    between atoms: _78  and  _79
REMARK   31  A    between atoms: _78  and  _81
REMARK   32  A    between atoms: _81  and  _82
REMARK   33  A    between atoms: _88  and  _90
REMARK   34  A    between atoms: _90  and  _91
REMARK   35  A    between atoms: _90  and  _93
REMARK   36  A    between atoms: _93  and  _94
REMARK   37  A    between atoms: _96  and  _98
REMARK   38  A    between atoms: _98  and  _99
REMARK   39  A    between atoms: _98  and  _101
REMARK   40  A    between atoms: _101  and  _102
REMARK   41  A    between atoms: _102  and  _103
REMARK   42  A    between atoms: _106  and  _108
REMARK   43  A    between atoms: _108  and  _109
REMARK   44  A    between atoms: _108  and  _111
REMARK   45  A    between atoms: _111  and  _112
REMARK   46  A    between atoms: _115  and  _117
REMARK   47  A    between atoms: _117  and  _118
REMARK   48  A    between atoms: _121  and  _123
REMARK   49  A    between atoms: _123  and  _124
REMARK   50  A    between atoms: _123  and  _126
REMARK   51  A    between atoms: _126  and  _127
REMARK   52  A    between atoms: _130  and  _132
REMARK   53  A    between atoms: _132  and  _133
REMARK   54  A    between atoms: _132  and  _135
REMARK   55  A    between atoms: _135  and  _136
REMARK   56  A    between atoms: _136  and  _137
REMARK   57  A    between atoms: _137  and  _138
REMARK   58  A    between atoms: _138  and  _139
REMARK   59  A    between atoms: _143  and  _145
REMARK   60  A    between atoms: _145  and  _146
REMARK   61  A    between atoms: _145  and  _148
REMARK   62  A    between atoms: _150  and  _152
REMARK   63  A    between atoms: _152  and  _153
REMARK   64  A    between atoms: _152  and  _155
REMARK   65  A    between atoms: _155  and  _156
REMARK   66  A    between atoms: _159  and  _161
REMARK   67  A    between atoms: _161  and  _162
REMARK   68  A    between atoms: _161  and  _164
REMARK   69  A    between atoms: _164  and  _165
REMARK   70  A    between atoms: _165  and  _166
REMARK   71  A    between atoms: _166  and  _167
REMARK   72  A    between atoms: _167  and  _168
REMARK   73  A    between atoms: _172  and  _174
REMARK   74  A    between atoms: _174  and  _175
REMARK   75  A    between atoms: _174  and  _177
REMARK   76  A    between atoms: _177  and  _178
REMARK   77  A    between atoms: _181  and  _183
REMARK   78  A    between atoms: _183  and  _184
REMARK   79  A    between atoms: _183  and  _186
REMARK   80  A    between atoms: _188  and  _190
REMARK   81  A    between atoms: _190  and  _191
REMARK   82  A    between atoms: _190  and  _193
REMARK   83  A    between atoms: _193  and  _194
REMARK   84  A    between atoms: _197  and  _199
REMARK   85  A    between atoms: _199  and  _200
REMARK   86  A    between atoms: _199  and  _202
REMARK   87  A    between atoms: _202  and  _203
REMARK   88  A    between atoms: _206  and  _208
REMARK   89  A    between atoms: _208  and  _209
REMARK   90  A    between atoms: _208  and  _211
REMARK   91  A    between atoms: _211  and  _212
REMARK   92  A    between atoms: _215  and  _217
REMARK   93  A    between atoms: _217  and  _218
REMARK   94  A    between atoms: _217  and  _220
REMARK   95  A    between atoms: _220  and  _221
REMARK   96  A    between atoms: _224  and  _226
REMARK   97  A    between atoms: _226  and  _227
REMARK   98  A    between atoms: _226  and  _229
REMARK   99  A    between atoms: _229  and  _230
REMARK  100  A    between atoms: _230  and  _231
REMARK  101  A    between atoms: _233  and  _235
REMARK  102  A    between atoms: _235  and  _236
REMARK  103  A    between atoms: _235  and  _238
REMARK  104  A    between atoms: _238  and  _239
REMARK  105  A    between atoms: _242  and  _244
REMARK  106  A    between atoms: _244  and  _245
REMARK  107  A    between atoms: _244  and  _247
REMARK  108  A    between atoms: _247  and  _248
REMARK  109  A    between atoms: _248  and  _249
REMARK  110  A    between atoms: _249  and  _250
REMARK  111  A    between atoms: _259  and  _261
REMARK  112  A    between atoms: _261  and  _262
REMARK  113  A    between atoms: _261  and  _264
REMARK  114  A    between atoms: _264  and  _265
REMARK  115  A    between atoms: _268  and  _270
REMARK  116  A    between atoms: _270  and  _271
REMARK  117  A    between atoms: _270  and  _273
REMARK  118  A    between atoms: _275  and  _277
REMARK  119  A    between atoms: _277  and  _278
REMARK  120  A    between atoms: _277  and  _280
REMARK  121  A    between atoms: _280  and  _281
REMARK  122  A    between atoms: _284  and  _286
REMARK  123  A    between atoms: _286  and  _287
REMARK  124  A    between atoms: _286  and  _289
REMARK  125  A    between atoms: _289  and  _290
REMARK  126  A    between atoms: _290  and  _291
REMARK  127  A    between atoms: _291  and  _292
REMARK  128  A    between atoms: _301  and  _303
REMARK  129  A    between atoms: _303  and  _304
REMARK  130  A    between atoms: _303  and  _306
REMARK  131  A    between atoms: _306  and  _307
REMARK  132  A    between atoms: _307  and  _308
REMARK  133  A    between atoms: _310  and  _312
REMARK  134  A    between atoms: _312  and  _313
REMARK  135  A    between atoms: _312  and  _315
REMARK  136  A    between atoms: _315  and  _316
REMARK  137  A    between atoms: _319  and  _321
REMARK  138  A    between atoms: _321  and  _322
REMARK  139  A    between atoms: _321  and  _324
REMARK  140  A    between atoms: _324  and  _325
REMARK  141  A    between atoms: _331  and  _333
REMARK  142  A    between atoms: _333  and  _334
REMARK  143  A    between atoms: _333  and  _336
REMARK  144  A    between atoms: _336  and  _337
REMARK  145  A    between atoms: _339  and  _341
REMARK  146  A    between atoms: _341  and  _342
REMARK  147  A    between atoms: _341  and  _344
REMARK  148  A    between atoms: _344  and  _345
REMARK  149  A    between atoms: _348  and  _350
REMARK  150  A    between atoms: _350  and  _351
REMARK  151  A    between atoms: _353  and  _355
REMARK  152  A    between atoms: _355  and  _356
REMARK  153  A    between atoms: _355  and  _358
REMARK  154  A    between atoms: _358  and  _359
REMARK  155  A    between atoms: _362  and  _364
REMARK  156  A    between atoms: _364  and  _365
REMARK  157  A    between atoms: _364  and  _367
REMARK  158  A    between atoms: _367  and  _368
REMARK  159  A    between atoms: _368  and  _369
REMARK  160  A    between atoms: _371  and  _373
REMARK  161  A    between atoms: _373  and  _374
REMARK  162  A    between atoms: _373  and  _376
REMARK  163  A    between atoms: _376  and  _377
REMARK  164  A    between atoms: _382  and  _384
REMARK  165  A    between atoms: _384  and  _385
REMARK  166  A    between atoms: _388  and  _390
REMARK  167  A    between atoms: _390  and  _391
REMARK  168  A    between atoms: _393  and  _395
REMARK  169  A    between atoms: _395  and  _396
REMARK  170  A    between atoms: _395  and  _398
REMARK  171  A    between atoms: _398  and  _399
REMARK  172  A    between atoms: _405  and  _407
REMARK  173  A    between atoms: _407  and  _408
REMARK  174  A    between atoms: _410  and  _412
REMARK  175  A    between atoms: _412  and  _413
REMARK  176  A    between atoms: _412  and  _415
REMARK  177  A    between atoms: _415  and  _416
REMARK  178  A    between atoms: _419  and  _421
REMARK  179  A    between atoms: _421  and  _422
REMARK  180  A    between atoms: _421  and  _424
REMARK  181  A    between atoms: _424  and  _425
REMARK  182  A    between atoms: _428  and  _430
REMARK  183  A    between atoms: _430  and  _431
REMARK  184  A    between atoms: _430  and  _433
REMARK  185  A    between atoms: _436  and  _438
REMARK  186  A    between atoms: _438  and  _439
REMARK  187  A    between atoms: _438  and  _441
REMARK  188  A    between atoms: _441  and  _442
REMARK  189  A    between atoms: _445  and  _447
REMARK  190  A    between atoms: _447  and  _448
REMARK  191  A    between atoms: _447  and  _450
REMARK  192  A    between atoms: _450  and  _451
REMARK  193  A    between atoms: _453  and  _455
REMARK  194  A    between atoms: _455  and  _456
REMARK  195  A    between atoms: _455  and  _458
REMARK  196  A    between atoms: _458  and  _459
REMARK  197  A    between atoms: _459  and  _460
REMARK  198  A    between atoms: _460  and  _461
REMARK  199  A    between atoms: _461  and  _462
REMARK  200  A    between atoms: _466  and  _468
REMARK  201  A    between atoms: _468  and  _469
REMARK  202  A    between atoms: _471  and  _473
REMARK  203  A    between atoms: _473  and  _474
REMARK  204  A    between atoms: _477  and  _479
REMARK  205  A    between atoms: _479  and  _480
REMARK  206  A    between atoms: _479  and  _482
REMARK  207  A    between atoms: _483  and  _484
REMARK  208  A    between atoms: _487  and  _489
REMARK  209  A    between atoms: _489  and  _490
REMARK  210  A    between atoms: _489  and  _492
REMARK  211  A    between atoms: _492  and  _493
REMARK  212  A    between atoms: _493  and  _494
REMARK  213  A    between atoms: _494  and  _495
REMARK  214  A    between atoms: _504  and  _506
REMARK  215  A    between atoms: _506  and  _507
REMARK  216  A    between atoms: _510  and  _512
REMARK  217  A    between atoms: _512  and  _513
REMARK  218  A    between atoms: _512  and  _515
REMARK  219  A    between atoms: _515  and  _516
REMARK  220  A    between atoms: _519  and  _521
REMARK  221  A    between atoms: _521  and  _522
REMARK  222  A    between atoms: _521  and  _524
REMARK  223  A    between atoms: _524  and  _525
REMARK  224  A    between atoms: _528  and  _530
REMARK  225  A    between atoms: _530  and  _531
REMARK  226  A    between atoms: _530  and  _533
REMARK  227  A    between atoms: _533  and  _534
REMARK  228  A    between atoms: _537  and  _539
REMARK  229  A    between atoms: _539  and  _540
REMARK  230  A    between atoms: _539  and  _542
REMARK  231  A    between atoms: _542  and  _543
REMARK  232  A    between atoms: _543  and  _544
REMARK  233  A    between atoms: _544  and  _545
REMARK  234  A    between atoms: _545  and  _546
REMARK  235  A    between atoms: _550  and  _552
REMARK  236  A    between atoms: _552  and  _553
REMARK  237  A    between atoms: _552  and  _555
REMARK  238  A    between atoms: _555  and  _556
REMARK  239  A    between atoms: _559  and  _561
REMARK  240  A    between atoms: _561  and  _562
REMARK  241  A    between atoms: _561  and  _564
REMARK  242  A    between atoms: _564  and  _565
REMARK  243  A    between atoms: _565  and  _566
REMARK  244  A    between atoms: _569  and  _570
REMARK  245  A    between atoms: _575  and  _577
REMARK  246  A    between atoms: _577  and  _578
REMARK  247  A    between atoms: _577  and  _580
REMARK  248  A    between atoms: _580  and  _581
REMARK  249  A    between atoms: _584  and  _586
REMARK  250  A    between atoms: _586  and  _587
REMARK  251  A    between atoms: _586  and  _589
REMARK  252  A    between atoms: _589  and  _590
REMARK  253  A    between atoms: _593  and  _595
REMARK  254  A    between atoms: _595  and  _596
REMARK  255  A    between atoms: _595  and  _598
REMARK  256  A    between atoms: _598  and  _599
REMARK  257  A    between atoms: _599  and  _600
REMARK  258  A    between atoms: _600  and  _601
REMARK  259  A    between atoms: _610  and  _612
REMARK  260  A    between atoms: _612  and  _613
REMARK  261  A    between atoms: _612  and  _615
REMARK  262  A    between atoms: _615  and  _616
REMARK  263  A    between atoms: _616  and  _617
REMARK  264  A    between atoms: _619  and  _621
REMARK  265  A    between atoms: _621  and  _622
REMARK  266  A    between atoms: _621  and  _624
REMARK  267  A    between atoms: _624  and  _625
REMARK                            x       y       z     vdW  Elec       q    Type
REMARK                         _______ _______ _______ _____ _____    ______ ____
ROOT
ATOM      1  CG  TRP A   1      42.157  21.544  75.915  0.00  0.00    -0.002 A 
ATOM      2  CD2 TRP A   1      42.772  20.793  76.961  0.00  0.00    +0.013 A 
ATOM      3  CE3 TRP A   1      42.436  19.598  77.612  0.00  0.00    +0.001 A 
ATOM      4  CZ3 TRP A   1      43.267  19.159  78.603  0.00  0.00    +0.000 A 
ATOM      5  CH2 TRP A   1      44.429  19.859  79.001  0.00  0.00    +0.001 A 
ATOM      6  CZ2 TRP A   1      44.777  21.024  78.379  0.00  0.00    +0.017 A 
ATOM      7  CE2 TRP A   1      43.918  21.456  77.373  0.00  0.00    +0.056 A 
ATOM      8  NE1 TRP A   1      44.018  22.580  76.598  0.00  0.00    -0.352 N 
ATOM      9  HE1 TRP A   1      44.777  23.288  76.655  0.00  0.00    +0.166 HD
ATOM     10  CD1 TRP A   1      42.955  22.620  75.735  0.00  0.00    +0.068 A 
ENDROOT
BRANCH   1  11
ATOM     11  CB  TRP A   1      40.892  21.209  75.186  0.00  0.00    +0.053 C 
BRANCH  11  12
ATOM     12  CA  TRP A   1      39.678  21.350  76.145  0.00  0.00    +0.137 C 
BRANCH  12  13
ATOM     13  N   TRP A   1      38.453  21.484  75.312  0.00  0.00    -0.239 NA
ATOM     14  H   TRP A   1      38.522  21.512  74.275  0.00  0.00    +0.142 HD
ENDBRANCH  12  13
BRANCH  12  15
ATOM     15  C   TRP A   1      39.822  22.512  77.091  0.00  0.00    +0.224 C 
ATOM     16  O   TRP A   1      40.172  22.360  78.254  0.00  0.00    -0.287 OA
ENDBRANCH  12  15
ENDBRANCH  11  12
ENDBRANCH   1  11
TORSDOF 4
REMARK  Name = ../refined-set-2016/1fd0/1fd0_pocket.pdb
REMARK  267 active torsions:
REMARK  status: ('A' for Active; 'I' for Inactive)
REMARK    1  A    between atoms: _1  and  _3
REMARK    2  A    between atoms: _3  and  _4
REMARK    3  A    between atoms: _3  and  _6
REMARK    4  A    between atoms: _6  and  _7
REMARK    5  A    between atoms: _10  and  _12
REMARK    6  A    between atoms: _12  and  _13
REMARK    7  A    between atoms: _12  and  _15
REMARK    8  A    between atoms: _15  and  _16
REMARK    9  A    between atoms: _23  and  _24
REMARK   10  A    between atoms: _29  and  _31
REMARK   11  A    between atoms: _31  and  _32
REMARK   12  A    between atoms: _31  and  _34
REMARK   13  A    between atoms: _34  and  _35
REMARK   14  A    between atoms: _38  and  _40
REMARK   15  A    between atoms: _40  and  _41
REMARK   16  A    between atoms: _40  and  _43
REMARK   17  A    between atoms: _43  and  _44
REMARK   18  A    between atoms: _47  and  _49
REMARK   19  A    between atoms: _49  and  _50
REMARK   20  A    between atoms: _49  and  _52
REMARK   21  A    between atoms: _52  and  _53
REMARK   22  A    between atoms: _63  and  _65
REMARK   23  A    between atoms: _65  and  _66
REMARK   24  A    between atoms: _65  and  _68
REMARK   25  A    between atoms: _68  and  _69
REMARK   26  A    between atoms: _69  and  _70
REMARK   27  A    between atoms: _70  and  _71
REMARK   28  A    between atoms: _71  and  _72
REMARK   29  A    between atoms: _76  and  _78
REMARK   30  A    between atoms: _78  and  _79
REMARK   31  A    between atoms: _78  and  _81
REMARK   32  A    between atoms: _81  and  _82
REMARK   33  A    between atoms: _88  and  _90
REMARK   34  A    between atoms: _90  and  _91
REMARK   35  A    between atoms: _90  and  _93
REMARK   36  A    between atoms: _93  and  _94
REMARK   37  A    between atoms: _96  and  _98
REMARK   38  A    between atoms: _98  and  _99
REMARK   39  A    between atoms: _98  and  _101
REMARK   40  A    between atoms: _101  and  _102
REMARK   41  A    between atoms: _102  and  _103
REMARK   42  A    between atoms: _106  and  _108
REMARK   43  A    between atoms: _108  and  _109
REMARK   44  A    between atoms: _108  and  _111
REMARK   45  A    between atoms: _111  and  _112
REMARK   46  A    between atoms: _115  and  _117
REMARK   47  A    between atoms: _117  and  _118
REMARK   48  A    between atoms: _121  and  _123
REMARK   49  A    between atoms: _123  and  _124
REMARK   50  A    between atoms: _123  and  _126
REMARK   51  A    between atoms: _126  and  _127
REMARK   52  A    between atoms: _130  and  _132
REMARK   53  A    between atoms: _132  and  _133
REMARK   54  A    between atoms: _132  and  _135
REMARK   55  A    between atoms: _135  and  _136
REMARK   56  A    between atoms: _136  and  _137
REMARK   57  A    between atoms: _137  and  _138
REMARK   58  A    between atoms: _138  and  _139
REMARK   59  A    between atoms: _143  and  _145
REMARK   60  A    between atoms: _145  and  _146
REMARK   61  A    between atoms: _145  and  _148
REMARK   62  A    between atoms: _150  and  _152
REMARK   63  A    between atoms: _152  and  _153
REMARK   64  A    between atoms: _152  and  _155
REMARK   65  A    between atoms: _155  and  _156
REMARK   66  A    between atoms: _159  and  _161
REMARK   67  A    between atoms: _161  and  _162
REMARK   68  A    between atoms: _161  and  _164
REMARK   69  A    between atoms: _164  and  _165
REMARK   70  A    between atoms: _165  and  _166
REMARK   71  A    between atoms: _166  and  _167
REMARK   72  A    between atoms: _167  and  _168
REMARK   73  A    between atoms: _172  and  _174
REMARK   74  A    between atoms: _174  and  _175
REMARK   75  A    between atoms: _174  and  _177
REMARK   76  A    between atoms: _177  and  _178
REMARK   77  A    between atoms: _181  and  _183
REMARK   78  A    between atoms: _183  and  _184
REMARK   79  A    between atoms: _183  and  _186
REMARK   80  A    between atoms: _188  and  _190
REMARK   81  A    between atoms: _190  and  _191
REMARK   82  A    between atoms: _190  and  _193
REMARK   83  A    between atoms: _193  and  _194
REMARK   84  A    between atoms: _197  and  _199
REMARK   85  A    between atoms: _199  and  _200
REMARK   86  A    between atoms: _199  and  _202
REMARK   87  A    between atoms: _202  and  _203
REMARK   88  A    between atoms: _206  and  _208
REMARK   89  A    between atoms: _208  and  _209
REMARK   90  A    between atoms: _208  and  _211
REMARK   91  A    between atoms: _211  and  _212
REMARK   92  A    between atoms: _215  and  _217
REMARK   93  A    between atoms: _217  and  _218
REMARK   94  A    between atoms: _217  and  _220
REMARK   95  A    between atoms: _220  and  _221
REMARK   96  A    between atoms: _224  and  _226
REMARK   97  A    between atoms: _226  and  _227
REMARK   98  A    between atoms: _226  and  _229
REMARK   99  A    between atoms: _229  and  _230
REMARK  100  A    between atoms: _230  and  _231
REMARK  101  A    between atoms: _233  and  _235
REMARK  102  A    between atoms: _235  and  _236
REMARK  103  A    between atoms: _235  and  _238
REMARK  104  A    between atoms: _238  and  _239
REMARK  105  A    between atoms: _242  and  _244
REMARK  106  A    between atoms: _244  and  _245
REMARK  107  A    between atoms: _244  and  _247
REMARK  108  A    between atoms: _247  and  _248
REMARK  109  A    between atoms: _248  and  _249
REMARK  110  A    between atoms: _249  and  _250
REMARK  111  A    between atoms: _259  and  _261
REMARK  112  A    between atoms: _261  and  _262
REMARK  113  A    between atoms: _261  and  _264
REMARK  114  A    between atoms: _264  and  _265
REMARK  115  A    between atoms: _268  and  _270
REMARK  116  A    between atoms: _270  and  _271
REMARK  117  A    between atoms: _270  and  _273
REMARK  118  A    between atoms: _275  and  _277
REMARK  119  A    between atoms: _277  and  _278
REMARK  120  A    between atoms: _277  and  _280
REMARK  121  A    between atoms: _280  and  _281
REMARK  122  A    between atoms: _284  and  _286
REMARK  123  A    between atoms: _286  and  _287
REMARK  124  A    between atoms: _286  and  _289
REMARK  125  A    between atoms: _289  and  _290
REMARK  126  A    between atoms: _290  and  _291
REMARK  127  A    between atoms: _291  and  _292
REMARK  128  A    between atoms: _301  and  _303
REMARK  129  A    between atoms: _303  and  _304
REMARK  130  A    between atoms: _303  and  _306
REMARK  131  A    between atoms: _306  and  _307
REMARK  132  A    between atoms: _307  and  _308
REMARK  133  A    between atoms: _310  and  _312
REMARK  134  A    between atoms: _312  and  _313
REMARK  135  A    between atoms: _312  and  _315
REMARK  136  A    between atoms: _315  and  _316
REMARK  137  A    between atoms: _319  and  _321
REMARK  138  A    between atoms: _321  and  _322
REMARK  139  A    between atoms: _321  and  _324
REMARK  140  A    between atoms: _324  and  _325
REMARK  141  A    between atoms: _331  and  _333
REMARK  142  A    between atoms: _333  and  _334
REMARK  143  A    between atoms: _333  and  _336
REMARK  144  A    between atoms: _336  and  _337
REMARK  145  A    between atoms: _339  and  _341
REMARK  146  A    between atoms: _341  and  _342
REMARK  147  A    between atoms: _341  and  _344
REMARK  148  A    between atoms: _344  and  _345
REMARK  149  A    between atoms: _348  and  _350
REMARK  150  A    between atoms: _350  and  _351
REMARK  151  A    between atoms: _353  and  _355
REMARK  152  A    between atoms: _355  and  _356
REMARK  153  A    between atoms: _355  and  _358
REMARK  154  A    between atoms: _358  and  _359
REMARK  155  A    between atoms: _362  and  _364
REMARK  156  A    between atoms: _364  and  _365
REMARK  157  A    between atoms: _364  and  _367
REMARK  158  A    between atoms: _367  and  _368
REMARK  159  A    between atoms: _368  and  _369
REMARK  160  A    between atoms: _371  and  _373
REMARK  161  A    between atoms: _373  and  _374
REMARK  162  A    between atoms: _373  and  _376
REMARK  163  A    between atoms: _376  and  _377
REMARK  164  A    between atoms: _382  and  _384
REMARK  165  A    between atoms: _384  and  _385
REMARK  166  A    between atoms: _388  and  _390
REMARK  167  A    between atoms: _390  and  _391
REMARK  168  A    between atoms: _393  and  _395
REMARK  169  A    between atoms: _395  and  _396
REMARK  170  A    between atoms: _395  and  _398
REMARK  171  A    between atoms: _398  and  _399
REMARK  172  A    between atoms: _405  and  _407
REMARK  173  A    between atoms: _407  and  _408
REMARK  174  A    between atoms: _410  and  _412
REMARK  175  A    between atoms: _412  and  _413
REMARK  176  A    between atoms: _412  and  _415
REMARK  177  A    between atoms: _415  and  _416
REMARK  178  A    between atoms: _419  and  _421
REMARK  179  A    between atoms: _421  and  _422
REMARK  180  A    between atoms: _421  and  _424
REMARK  181  A    between atoms: _424  and  _425
REMARK  182  A    between atoms: _428  and  _430
REMARK  183  A    between atoms: _430  and  _431
REMARK  184  A    between atoms: _430  and  _433
REMARK  185  A    between atoms: _436  and  _438
REMARK  186  A    between atoms: _438  and  _439
REMARK  187  A    between atoms: _438  and  _441
REMARK  188  A    between atoms: _441  and  _442
REMARK  189  A    between atoms: _445  and  _447
REMARK  190  A    between atoms: _447  and  _448
REMARK  191  A    between atoms: _447  and  _450
REMARK  192  A    between atoms: _450  and  _451
REMARK  193  A    between atoms: _453  and  _455
REMARK  194  A    between atoms: _455  and  _456
REMARK  195  A    between atoms: _455  and  _458
REMARK  196  A    between atoms: _458  and  _459
REMARK  197  A    between atoms: _459  and  _460
REMARK  198  A    between atoms: _460  and  _461
REMARK  199  A    between atoms: _461  and  _462
REMARK  200  A    between atoms: _466  and  _468
REMARK  201  A    between atoms: _468  and  _469
REMARK  202  A    between atoms: _471  and  _473
REMARK  203  A    between atoms: _473  and  _474
REMARK  204  A    between atoms: _477  and  _479
REMARK  205  A    between atoms: _479  and  _480
REMARK  206  A    between atoms: _479  and  _482
REMARK  207  A    between atoms: _483  and  _484
REMARK  208  A    between atoms: _487  and  _489
REMARK  209  A    between atoms: _489  and  _490
REMARK  210  A    between atoms: _489  and  _492
REMARK  211  A    between atoms: _492  and  _493
REMARK  212  A    between atoms: _493  and  _494
REMARK  213  A    between atoms: _494  and  _495
REMARK  214  A    between atoms: _504  and  _506
REMARK  215  A    between atoms: _506  and  _507
REMARK  216  A    between atoms: _510  and  _512
REMARK  217  A    between atoms: _512  and  _513
REMARK  218  A    between atoms: _512  and  _515
REMARK  219  A    between atoms: _515  and  _516
REMARK  220  A    between atoms: _519  and  _521
REMARK  221  A    between atoms: _521  and  _522
REMARK  222  A    between atoms: _521  and  _524
REMARK  223  A    between atoms: _524  and  _525
REMARK  224  A    between atoms: _528  and  _530
REMARK  225  A    between atoms: _530  and  _531
REMARK  226  A    between atoms: _530  and  _533
REMARK  227  A    between atoms: _533  and  _534
REMARK  228  A    between atoms: _537  and  _539
REMARK  229  A    between atoms: _539  and  _540
REMARK  230  A    between atoms: _539  and  _542
REMARK  231  A    between atoms: _542  and  _543
REMARK  232  A    between atoms: _543  and  _544
REMARK  233  A    between atoms: _544  and  _545
REMARK  234  A    between atoms: _545  and  _546
REMARK  235  A    between atoms: _550  and  _552
REMARK  236  A    between atoms: _552  and  _553
REMARK  237  A    between atoms: _552  and  _555
REMARK  238  A    between atoms: _555  and  _556
REMARK  239  A    between atoms: _559  and  _561
REMARK  240  A    between atoms: _561  and  _562
REMARK  241  A    between atoms: _561  and  _564
REMARK  242  A    between atoms: _564  and  _565
REMARK  243  A    between atoms: _565  and  _566
REMARK  244  A    between atoms: _569  and  _570
REMARK  245  A    between atoms: _575  and  _577
REMARK  246  A    between atoms: _577  and  _578
REMARK  247  A    between atoms: _577  and  _580
REMARK  248  A    between atoms: _580  and  _581
REMARK  249  A    between atoms: _584  and  _586
REMARK  250  A    between atoms: _586  and  _587
REMARK  251  A    between atoms: _586  and  _589
REMARK  252  A    between atoms: _589  and  _590
REMARK  253  A    between atoms: _593  and  _595
REMARK  254  A    between atoms: _595  and  _596
REMARK  255  A    between atoms: _595  and  _598
REMARK  256  A    between atoms: _598  and  _599
REMARK  257  A    between atoms: _599  and  _600
REMARK  258  A    between atoms: _600  and  _601
REMARK  259  A    between atoms: _610  and  _612
REMARK  260  A    between atoms: _612  and  _613
REMARK  261  A    between atoms: _612  and  _615
REMARK  262  A    between atoms: _615  and  _616
REMARK  263  A    between atoms: _616  and  _617
REMARK  264  A    between atoms: _619  and  _621
REMARK  265  A    between atoms: _621  and  _622
REMARK  266  A    between atoms: _621  and  _624
REMARK  267  A    between atoms: _624  and  _625
REMARK                            x       y       z     vdW  Elec       q    Type
REMARK                         _______ _______ _______ _____ _____    ______ ____
ROOT
ATOM      1  CA  LEU A   5      37.325  22.350  85.509  0.00  0.00    +0.149 C 
ENDROOT
BRANCH   1   2
ATOM      2  C   LEU A   5      38.238  21.384  86.218  0.00  0.00    +0.241 C 
ATOM      3  O   LEU A   5      38.074  21.180  87.429  0.00  0.00    -0.273 OA
ATOM      4  N   ALA A   6      39.199  20.804  85.520  0.00  0.00    -0.297 N 
ATOM      5  H   ALA A   6      39.261  20.975  84.496  0.00  0.00    +0.150 HD
BRANCH   4   6
ATOM      6  CA  ALA A   6      40.179  19.924  86.165  0.00  0.00    +0.149 C 
ATOM      7  CB  ALA A   6      41.057  19.308  85.107  0.00  0.00    +0.031 C 
BRANCH   6   8
ATOM      8  C   ALA A   6      40.986  20.682  87.203  0.00  0.00    +0.241 C 
ATOM      9  O   ALA A   6      41.168  20.204  88.331  0.00  0.00    -0.273 OA
ATOM     10  N   THR A   7      41.497  21.876  86.866  0.00  0.00    -0.295 N 
ATOM     11  H   THR A   7      41.371  22.230  85.896  0.00  0.00    +0.150 HD
BRANCH  10  12
ATOM     12  CA  THR A   7      42.223  22.682  87.831  0.00  0.00    +0.176 C 
BRANCH  12  13
ATOM     13  C   THR A   7      41.376  22.925  89.080  0.00  0.00    +0.243 C 
ATOM     14  O   THR A   7      41.838  22.816  90.200  0.00  0.00    -0.273 OA
ATOM     15  N   LYS A   8      40.105  23.333  88.892  0.00  0.00    -0.297 N 
ATOM     16  H   LYS A   8      39.733  23.443  87.927  0.00  0.00    +0.150 HD
BRANCH  15  17
ATOM     17  CA  LYS A   8      39.250  23.620  90.038  0.00  0.00    +0.149 C 
BRANCH  17  18
ATOM     18  C   LYS A   8      39.066  22.397  90.903  0.00  0.00    +0.241 C 
ATOM     19  O   LYS A   8      39.071  22.491  92.145  0.00  0.00    -0.273 OA
ATOM     20  N   CYS A   9      38.922  21.231  90.290  0.00  0.00    -0.296 N 
ATOM     21  H   CYS A   9      38.946  21.174  89.252  0.00  0.00    +0.150 HD
BRANCH  20  22
ATOM     22  CA  CYS A   9      38.728  20.018  91.100  0.00  0.00    +0.160 C 
BRANCH  22  23
ATOM     23  C   CYS A   9      40.009  19.578  91.798  0.00  0.00    +0.242 C 
ATOM     24  O   CYS A   9      39.957  19.090  92.911  0.00  0.00    -0.273 OA
ATOM     25  N   ILE A  10      41.180  19.825  91.196  0.00  0.00    -0.298 N 
ATOM     26  H   ILE A  10      41.198  20.194  90.224  0.00  0.00    +0.150 HD
BRANCH  25  27
ATOM     27  CA  ILE A  10      42.424  19.576  91.903  0.00  0.00    +0.137 C 
BRANCH  27  28
ATOM     28  CB  ILE A  10      43.613  19.856  90.994  0.00  0.00    +0.026 C 
ATOM     29  CG2 ILE A  10      44.896  19.950  91.832  0.00  0.00    +0.002 C 
BRANCH  28  30
ATOM     30  CG1 ILE A  10      43.737  18.840  89.864  0.00  0.00    +0.002 C 
ATOM     31  CD1 ILE A  10      44.702  19.226  88.734  0.00  0.00    +0.000 C 
ENDBRANCH  28  30
ENDBRANCH  27  28
BRANCH  27  32
ATOM     32  C   ILE A  10      42.438  20.373  93.198  0.00  0.00    +0.227 C 
ATOM     33  O   ILE A  10      42.799  19.889  94.266  0.00  0.00    -0.286 OA
ENDBRANCH  27  32
ENDBRANCH  25  27
ENDBRANCH  22  23
BRANCH  22  34
ATOM     34  CB  CYS A   9      38.187  18.890  90.212  0.00  0.00    +0.098 C 
ATOM     35  SG  CYS A   9      37.491  17.500  91.166  0.00  0.00    -0.080 S 
ENDBRANCH  22  34
ENDBRANCH  20  22
ENDBRANCH  17  18
BRANCH  17  36
ATOM     36  CB  LYS A   8      37.906  24.175  89.561  0.00  0.00    +0.029 C 
BRANCH  36  37
ATOM     37  CG  LYS A   8      37.988  25.569  88.987  0.00  0.00    +0.000 C 
BRANCH  37  38
ATOM     38  CD  LYS A   8      36.685  26.162  88.552  0.00  0.00    -0.024 C 
BRANCH  38  39
ATOM     39  CE  LYS A   8      36.797  27.602  88.028  0.00  0.00    -0.086 C 
BRANCH  39  40
ATOM     40  NZ  LYS A   8      36.842  28.597  89.138  0.00  0.00    +0.380 N 
ATOM     41  HZ1 LYS A   8      37.667  28.405  89.741  0.00  0.00    -0.089 HD
ATOM     42  HZ2 LYS A   8      35.973  28.523  89.704  0.00  0.00    -0.089 HD
ATOM     43  HZ3 LYS A   8      36.918  29.555  88.740  0.00  0.00    -0.089 HD
ENDBRANCH  39  40
ENDBRANCH  38  39
ENDBRANCH  37  38
ENDBRANCH  36  37
ENDBRANCH  17  36
ENDBRANCH  15  17
ENDBRANCH  12  13
BRANCH  12  44
ATOM     44  CB  THR A   7      42.667  24.026  87.225  0.00  0.00    +0.137 C 
ATOM     45  CG2 THR A   7      43.202  24.977  88.311  0.00  0.00    +0.034 C 
BRANCH  44  46
ATOM     46  OG1 THR A   7      43.671  23.754  86.222  0.00  0.00    -0.382 OA
ATOM     47  HG1 THR A   7      43.972  24.606  85.818  0.00  0.00    +0.210 HD
ENDBRANCH  44  46
ENDBRANCH  12  44
ENDBRANCH  10  12
ENDBRANCH   6   8
ENDBRANCH   4   6
ENDBRANCH   1   2
BRANCH   1  50
ATOM     48  C   GLU A   4      38.987  23.991  84.872  0.00  0.00    +0.241 C 
ATOM     49  O   GLU A   4      39.266  24.199  86.068  0.00  0.00    -0.273 OA
ATOM     50  N   LEU A   5      38.042  23.152  84.492  0.00  0.00    -0.297 N 
ATOM     51  H   LEU A   5      37.802  23.055  83.485  0.00  0.00    +0.150 HD
BRANCH  48  52
ATOM     52  CA  GLU A   4      39.703  24.731  83.768  0.00  0.00    +0.149 C 
BRANCH  52  55
ATOM     53  C   SER A   3      40.901  22.812  82.867  0.00  0.00    +0.243 C 
ATOM     54  O   SER A   3      41.484  22.621  83.939  0.00  0.00    -0.273 OA
ATOM     55  N   GLU A   4      40.091  23.814  82.666  0.00  0.00    -0.297 N 
ATOM     56  H   GLU A   4      39.708  23.975  81.713  0.00  0.00    +0.150 HD
BRANCH  53  57
ATOM     57  CA  SER A   3      41.145  21.843  81.761  0.00  0.00    +0.178 C 
BRANCH  57  60
ATOM     58  C   PHE A   2      38.863  20.985  81.533  0.00  0.00    +0.241 C 
ATOM     59  O   PHE A   2      38.869  20.651  82.718  0.00  0.00    -0.273 OA
ATOM     60  N   SER A   3      39.907  21.588  80.998  0.00  0.00    -0.295 N 
ATOM     61  H   SER A   3      39.856  21.894  80.005  0.00  0.00    +0.150 HD
BRANCH  58  62
ATOM     62  CA  PHE A   2      37.660  20.787  80.648  0.00  0.00    +0.153 C 
BRANCH  62  65
ATOM     63  C   LYS A   1      36.986  23.148  80.481  0.00  0.00    +0.238 C 
ATOM     64  O   LYS A   1      36.950  23.264  81.713  0.00  0.00    -0.274 OA
ATOM     65  N   PHE A   2      37.312  22.012  79.883  0.00  0.00    -0.297 N 
ATOM     66  H   PHE A   2      37.325  21.976  78.844  0.00  0.00    +0.150 HD
BRANCH  63  67
ATOM     67  CA  LYS A   1      36.619  24.319  79.574  0.00  0.00    +0.145 C 
BRANCH  67  68
ATOM     68  N   LYS A   1      37.538  24.421  78.439  0.00  0.00    -0.238 NA
ATOM     69  H   LYS A   1      37.218  24.214  77.471  0.00  0.00    +0.142 HD
ENDBRANCH  67  68
BRANCH  67  70
ATOM     70  CB  LYS A   1      35.166  24.183  79.142  0.00  0.00    +0.026 C 
BRANCH  70  71
ATOM     71  CG  LYS A   1      34.157  23.928  80.239  0.00  0.00    -0.000 C 
BRANCH  71  72
ATOM     72  CD  LYS A   1      34.314  24.795  81.462  0.00  0.00    -0.024 C 
BRANCH  72  73
ATOM     73  CE  LYS A   1      33.034  25.320  82.068  0.00  0.00    -0.086 C 
BRANCH  73  74
ATOM     74  NZ  LYS A   1      33.252  26.745  82.508  0.00  0.00    +0.380 N 
ATOM     75  HZ1 LYS A   1      34.015  26.776  83.214  0.00  0.00    -0.089 HD
ATOM     76  HZ2 LYS A   1      32.375  27.115  82.927  0.00  0.00    -0.089 HD
ATOM     77  HZ3 LYS A   1      33.516  27.324  81.685  0.00  0.00    -0.089 HD
ENDBRANCH  73  74
ENDBRANCH  72  73
ENDBRANCH  71  72
ENDBRANCH  70  71
ENDBRANCH  67  70
ENDBRANCH  63  67
ENDBRANCH  62  65
BRANCH  62  78
ATOM     78  CB  PHE A   2      37.883  19.705  79.596  0.00  0.00    +0.055 C 
BRANCH  78  79
ATOM     79  CG  PHE A   2      38.365  18.400  80.185  0.00  0.00    -0.020 A 
ATOM     80  CD2 PHE A   2      37.507  17.493  80.762  0.00  0.00    -0.004 A 
ATOM     81  CE2 PHE A   2      38.020  16.339  81.302  0.00  0.00    -0.000 A 
ATOM     82  CZ  PHE A   2      39.326  15.993  81.166  0.00  0.00    -0.000 A 
ATOM     83  CE1 PHE A   2      40.224  16.918  80.631  0.00  0.00    -0.000 A 
ATOM     84  CD1 PHE A   2      39.732  18.094  80.142  0.00  0.00    -0.004 A 
ENDBRANCH  78  79
ENDBRANCH  62  78
ENDBRANCH  58  62
ENDBRANCH  57  60
BRANCH  57  85
ATOM     85  CB  SER A   3      42.291  22.248  80.829  0.00  0.00    +0.166 C 
BRANCH  85  86
ATOM     86  OG  SER A   3      42.013  23.468  80.168  0.00  0.00    -0.380 OA
ATOM     87  H   SER A   3      41.189  23.369  79.629  0.00  0.00    +0.211 HD
ENDBRANCH  85  86
ENDBRANCH  57  85
ENDBRANCH  53  57
ENDBRANCH  52  55
BRANCH  52  88
ATOM     88  CB  GLU A   4      38.812  25.803  83.190  0.00  0.00    +0.041 C 
BRANCH  88  89
ATOM     89  CG  GLU A   4      38.284  26.822  84.147  0.00  0.00    +0.116 C 
BRANCH  89  90
ATOM     90  CD  GLU A   4      37.248  27.620  83.338  0.00  0.00    +0.365 C 
ATOM     91  OE2 GLU A   4      36.110  27.689  83.827  0.00  0.00    -0.246 OA
ATOM     92  OE1 GLU A   4      37.533  28.071  82.187  0.00  0.00    -0.246 OA
ENDBRANCH  89  90
ENDBRANCH  88  89
ENDBRANCH  52  88
ENDBRANCH  48  52
ENDBRANCH   1  50
BRANCH   1  93
ATOM     93  CB  LEU A   5      36.155  21.626  84.860  0.00  0.00    +0.029 C 
BRANCH  93  94
ATOM     94  CG  LEU A   5      35.051  22.546  84.383  0.00  0.00    +0.002 C 
ATOM     95  CD2 LEU A   5      34.232  23.042  85.563  0.00  0.00    +0.000 C 
ATOM     96  CD1 LEU A   5      34.191  21.854  83.313  0.00  0.00    +0.000 C 
ENDBRANCH  93  94
ENDBRANCH   1  93
TORSDOF 44
REMARK  Name = ../refined-set-2016/1fd0/1fd0_pocket.pdb
REMARK  267 active torsions:
REMARK  status: ('A' for Active; 'I' for Inactive)
REMARK    1  A    between atoms: _1  and  _3
REMARK    2  A    between atoms: _3  and  _4
REMARK    3  A    between atoms: _3  and  _6
REMARK    4  A    between atoms: _6  and  _7
REMARK    5  A    between atoms: _10  and  _12
REMARK    6  A    between atoms: _12  and  _13
REMARK    7  A    between atoms: _12  and  _15
REMARK    8  A    between atoms: _15  and  _16
REMARK    9  A    between atoms: _23  and  _24
REMARK   10  A    between atoms: _29  and  _31
REMARK   11  A    between atoms: _31  and  _32
REMARK   12  A    between atoms: _31  and  _34
REMARK   13  A    between atoms: _34  and  _35
REMARK   14  A    between atoms: _38  and  _40
REMARK   15  A    between atoms: _40  and  _41
REMARK   16  A    between atoms: _40  and  _43
REMARK   17  A    between atoms: _43  and  _44
REMARK   18  A    between atoms: _47  and  _49
REMARK   19  A    between atoms: _49  and  _50
REMARK   20  A    between atoms: _49  and  _52
REMARK   21  A    between atoms: _52  and  _53
REMARK   22  A    between atoms: _63  and  _65
REMARK   23  A    between atoms: _65  and  _66
REMARK   24  A    between atoms: _65  and  _68
REMARK   25  A    between atoms: _68  and  _69
REMARK   26  A    between atoms: _69  and  _70
REMARK   27  A    between atoms: _70  and  _71
REMARK   28  A    between atoms: _71  and  _72
REMARK   29  A    between atoms: _76  and  _78
REMARK   30  A    between atoms: _78  and  _79
REMARK   31  A    between atoms: _78  and  _81
REMARK   32  A    between atoms: _81  and  _82
REMARK   33  A    between atoms: _88  and  _90
REMARK   34  A    between atoms: _90  and  _91
REMARK   35  A    between atoms: _90  and  _93
REMARK   36  A    between atoms: _93  and  _94
REMARK   37  A    between atoms: _96  and  _98
REMARK   38  A    between atoms: _98  and  _99
REMARK   39  A    between atoms: _98  and  _101
REMARK   40  A    between atoms: _101  and  _102
REMARK   41  A    between atoms: _102  and  _103
REMARK   42  A    between atoms: _106  and  _108
REMARK   43  A    between atoms: _108  and  _109
REMARK   44  A    between atoms: _108  and  _111
REMARK   45  A    between atoms: _111  and  _112
REMARK   46  A    between atoms: _115  and  _117
REMARK   47  A    between atoms: _117  and  _118
REMARK   48  A    between atoms: _121  and  _123
REMARK   49  A    between atoms: _123  and  _124
REMARK   50  A    between atoms: _123  and  _126
REMARK   51  A    between atoms: _126  and  _127
REMARK   52  A    between atoms: _130  and  _132
REMARK   53  A    between atoms: _132  and  _133
REMARK   54  A    between atoms: _132  and  _135
REMARK   55  A    between atoms: _135  and  _136
REMARK   56  A    between atoms: _136  and  _137
REMARK   57  A    between atoms: _137  and  _138
REMARK   58  A    between atoms: _138  and  _139
REMARK   59  A    between atoms: _143  and  _145
REMARK   60  A    between atoms: _145  and  _146
REMARK   61  A    between atoms: _145  and  _148
REMARK   62  A    between atoms: _150  and  _152
REMARK   63  A    between atoms: _152  and  _153
REMARK   64  A    between atoms: _152  and  _155
REMARK   65  A    between atoms: _155  and  _156
REMARK   66  A    between atoms: _159  and  _161
REMARK   67  A    between atoms: _161  and  _162
REMARK   68  A    between atoms: _161  and  _164
REMARK   69  A    between atoms: _164  and  _165
REMARK   70  A    between atoms: _165  and  _166
REMARK   71  A    between atoms: _166  and  _167
REMARK   72  A    between atoms: _167  and  _168
REMARK   73  A    between atoms: _172  and  _174
REMARK   74  A    between atoms: _174  and  _175
REMARK   75  A    between atoms: _174  and  _177
REMARK   76  A    between atoms: _177  and  _178
REMARK   77  A    between atoms: _181  and  _183
REMARK   78  A    between atoms: _183  and  _184
REMARK   79  A    between atoms: _183  and  _186
REMARK   80  A    between atoms: _188  and  _190
REMARK   81  A    between atoms: _190  and  _191
REMARK   82  A    between atoms: _190  and  _193
REMARK   83  A    between atoms: _193  and  _194
REMARK   84  A    between atoms: _197  and  _199
REMARK   85  A    between atoms: _199  and  _200
REMARK   86  A    between atoms: _199  and  _202
REMARK   87  A    between atoms: _202  and  _203
REMARK   88  A    between atoms: _206  and  _208
REMARK   89  A    between atoms: _208  and  _209
REMARK   90  A    between atoms: _208  and  _211
REMARK   91  A    between atoms: _211  and  _212
REMARK   92  A    between atoms: _215  and  _217
REMARK   93  A    between atoms: _217  and  _218
REMARK   94  A    between atoms: _217  and  _220
REMARK   95  A    between atoms: _220  and  _221
REMARK   96  A    between atoms: _224  and  _226
REMARK   97  A    between atoms: _226  and  _227
REMARK   98  A    between atoms: _226  and  _229
REMARK   99  A    between atoms: _229  and  _230
REMARK  100  A    between atoms: _230  and  _231
REMARK  101  A    between atoms: _233  and  _235
REMARK  102  A    between atoms: _235  and  _236
REMARK  103  A    between atoms: _235  and  _238
REMARK  104  A    between atoms: _238  and  _239
REMARK  105  A    between atoms: _242  and  _244
REMARK  106  A    between atoms: _244  and  _245
REMARK  107  A    between atoms: _244  and  _247
REMARK  108  A    between atoms: _247  and  _248
REMARK  109  A    between atoms: _248  and  _249
REMARK  110  A    between atoms: _249  and  _250
REMARK  111  A    between atoms: _259  and  _261
REMARK  112  A    between atoms: _261  and  _262
REMARK  113  A    between atoms: _261  and  _264
REMARK  114  A    between atoms: _264  and  _265
REMARK  115  A    between atoms: _268  and  _270
REMARK  116  A    between atoms: _270  and  _271
REMARK  117  A    between atoms: _270  and  _273
REMARK  118  A    between atoms: _275  and  _277
REMARK  119  A    between atoms: _277  and  _278
REMARK  120  A    between atoms: _277  and  _280
REMARK  121  A    between atoms: _280  and  _281
REMARK  122  A    between atoms: _284  and  _286
REMARK  123  A    between atoms: _286  and  _287
REMARK  124  A    between atoms: _286  and  _289
REMARK  125  A    between atoms: _289  and  _290
REMARK  126  A    between atoms: _290  and  _291
REMARK  127  A    between atoms: _291  and  _292
REMARK  128  A    between atoms: _301  and  _303
REMARK  129  A    between atoms: _303  and  _304
REMARK  130  A    between atoms: _303  and  _306
REMARK  131  A    between atoms: _306  and  _307
REMARK  132  A    between atoms: _307  and  _308
REMARK  133  A    between atoms: _310  and  _312
REMARK  134  A    between atoms: _312  and  _313
REMARK  135  A    between atoms: _312  and  _315
REMARK  136  A    between atoms: _315  and  _316
REMARK  137  A    between atoms: _319  and  _321
REMARK  138  A    between atoms: _321  and  _322
REMARK  139  A    between atoms: _321  and  _324
REMARK  140  A    between atoms: _324  and  _325
REMARK  141  A    between atoms: _331  and  _333
REMARK  142  A    between atoms: _333  and  _334
REMARK  143  A    between atoms: _333  and  _336
REMARK  144  A    between atoms: _336  and  _337
REMARK  145  A    between atoms: _339  and  _341
REMARK  146  A    between atoms: _341  and  _342
REMARK  147  A    between atoms: _341  and  _344
REMARK  148  A    between atoms: _344  and  _345
REMARK  149  A    between atoms: _348  and  _350
REMARK  150  A    between atoms: _350  and  _351
REMARK  151  A    between atoms: _353  and  _355
REMARK  152  A    between atoms: _355  and  _356
REMARK  153  A    between atoms: _355  and  _358
REMARK  154  A    between atoms: _358  and  _359
REMARK  155  A    between atoms: _362  and  _364
REMARK  156  A    between atoms: _364  and  _365
REMARK  157  A    between atoms: _364  and  _367
REMARK  158  A    between atoms: _367  and  _368
REMARK  159  A    between atoms: _368  and  _369
REMARK  160  A    between atoms: _371  and  _373
REMARK  161  A    between atoms: _373  and  _374
REMARK  162  A    between atoms: _373  and  _376
REMARK  163  A    between atoms: _376  and  _377
REMARK  164  A    between atoms: _382  and  _384
REMARK  165  A    between atoms: _384  and  _385
REMARK  166  A    between atoms: _388  and  _390
REMARK  167  A    between atoms: _390  and  _391
REMARK  168  A    between atoms: _393  and  _395
REMARK  169  A    between atoms: _395  and  _396
REMARK  170  A    between atoms: _395  and  _398
REMARK  171  A    between atoms: _398  and  _399
REMARK  172  A    between atoms: _405  and  _407
REMARK  173  A    between atoms: _407  and  _408
REMARK  174  A    between atoms: _410  and  _412
REMARK  175  A    between atoms: _412  and  _413
REMARK  176  A    between atoms: _412  and  _415
REMARK  177  A    between atoms: _415  and  _416
REMARK  178  A    between atoms: _419  and  _421
REMARK  179  A    between atoms: _421  and  _422
REMARK  180  A    between atoms: _421  and  _424
REMARK  181  A    between atoms: _424  and  _425
REMARK  182  A    between atoms: _428  and  _430
REMARK  183  A    between atoms: _430  and  _431
REMARK  184  A    between atoms: _430  and  _433
REMARK  185  A    between atoms: _436  and  _438
REMARK  186  A    between atoms: _438  and  _439
REMARK  187  A    between atoms: _438  and  _441
REMARK  188  A    between atoms: _441  and  _442
REMARK  189  A    between atoms: _445  and  _447
REMARK  190  A    between atoms: _447  and  _448
REMARK  191  A    between atoms: _447  and  _450
REMARK  192  A    between atoms: _450  and  _451
REMARK  193  A    between atoms: _453  and  _455
REMARK  194  A    between atoms: _455  and  _456
REMARK  195  A    between atoms: _455  and  _458
REMARK  196  A    between atoms: _458  and  _459
REMARK  197  A    between atoms: _459  and  _460
REMARK  198  A    between atoms: _460  and  _461
REMARK  199  A    between atoms: _461  and  _462
REMARK  200  A    between atoms: _466  and  _468
REMARK  201  A    between atoms: _468  and  _469
REMARK  202  A    between atoms: _471  and  _473
REMARK  203  A    between atoms: _473  and  _474
REMARK  204  A    between atoms: _477  and  _479
REMARK  205  A    between atoms: _479  and  _480
REMARK  206  A    between atoms: _479  and  _482
REMARK  207  A    between atoms: _483  and  _484
REMARK  208  A    between atoms: _487  and  _489
REMARK  209  A    between atoms: _489  and  _490
REMARK  210  A    between atoms: _489  and  _492
REMARK  211  A    between atoms: _492  and  _493
REMARK  212  A    between atoms: _493  and  _494
REMARK  213  A    between atoms: _494  and  _495
REMARK  214  A    between atoms: _504  and  _506
REMARK  215  A    between atoms: _506  and  _507
REMARK  216  A    between atoms: _510  and  _512
REMARK  217  A    between atoms: _512  and  _513
REMARK  218  A    between atoms: _512  and  _515
REMARK  219  A    between atoms: _515  and  _516
REMARK  220  A    between atoms: _519  and  _521
REMARK  221  A    between atoms: _521  and  _522
REMARK  222  A    between atoms: _521  and  _524
REMARK  223  A    between atoms: _524  and  _525
REMARK  224  A    between atoms: _528  and  _530
REMARK  225  A    between atoms: _530  and  _531
REMARK  226  A    between atoms: _530  and  _533
REMARK  227  A    between atoms: _533  and  _534
REMARK  228  A    between atoms: _537  and  _539
REMARK  229  A    between atoms: _539  and  _540
REMARK  230  A    between atoms: _539  and  _542
REMARK  231  A    between atoms: _542  and  _543
REMARK  232  A    between atoms: _543  and  _544
REMARK  233  A    between atoms: _544  and  _545
REMARK  234  A    between atoms: _545  and  _546
REMARK  235  A    between atoms: _550  and  _552
REMARK  236  A    between atoms: _552  and  _553
REMARK  237  A    between atoms: _552  and  _555
REMARK  238  A    between atoms: _555  and  _556
REMARK  239  A    between atoms: _559  and  _561
REMARK  240  A    between atoms: _561  and  _562
REMARK  241  A    between atoms: _561  and  _564
REMARK  242  A    between atoms: _564  and  _565
REMARK  243  A    between atoms: _565  and  _566
REMARK  244  A    between atoms: _569  and  _570
REMARK  245  A    between atoms: _575  and  _577
REMARK  246  A    between atoms: _577  and  _578
REMARK  247  A    between atoms: _577  and  _580
REMARK  248  A    between atoms: _580  and  _581
REMARK  249  A    between atoms: _584  and  _586
REMARK  250  A    between atoms: _586  and  _587
REMARK  251  A    between atoms: _586  and  _589
REMARK  252  A    between atoms: _589  and  _590
REMARK  253  A    between atoms: _593  and  _595
REMARK  254  A    between atoms: _595  and  _596
REMARK  255  A    between atoms: _595  and  _598
REMARK  256  A    between atoms: _598  and  _599
REMARK  257  A    between atoms: _599  and  _600
REMARK  258  A    between atoms: _600  and  _601
REMARK  259  A    between atoms: _610  and  _612
REMARK  260  A    between atoms: _612  and  _613
REMARK  261  A    between atoms: _612  and  _615
REMARK  262  A    between atoms: _615  and  _616
REMARK  263  A    between atoms: _616  and  _617
REMARK  264  A    between atoms: _619  and  _621
REMARK  265  A    between atoms: _621  and  _622
REMARK  266  A    between atoms: _621  and  _624
REMARK  267  A    between atoms: _624  and  _625
REMARK                            x       y       z     vdW  Elec       q    Type
REMARK                         _______ _______ _______ _____ _____    ______ ____
ROOT
ATOM      1  CA  LYS A   1      38.960  20.840  95.797  0.00  0.00    +0.145 C 
ENDROOT
BRANCH   1   2
ATOM      2  C   LYS A   1      39.507  19.553  96.414  0.00  0.00    +0.238 C 
ATOM      3  O   LYS A   1      39.234  19.285  97.605  0.00  0.00    -0.274 OA
ATOM      4  N   ILE A   2      40.300  18.778  95.673  0.00  0.00    -0.298 N 
ATOM      5  H   ILE A   2      40.513  19.035  94.688  0.00  0.00    +0.150 HD
BRANCH   4   6
ATOM      6  CA  ILE A   2      40.871  17.555  96.261  0.00  0.00    +0.137 C 
BRANCH   6   7
ATOM      7  C   ILE A   2      41.902  17.872  97.330  0.00  0.00    +0.227 C 
ATOM      8  O   ILE A   2      41.995  17.222  98.385  0.00  0.00    -0.286 OA
ENDBRANCH   6   7
BRANCH   6   9
ATOM      9  CB  ILE A   2      41.440  16.665  95.117  0.00  0.00    +0.026 C 
ATOM     10  CG2 ILE A   2      42.342  15.578  95.639  0.00  0.00    +0.002 C 
BRANCH   9  11
ATOM     11  CG1 ILE A   2      40.350  16.086  94.265  0.00  0.00    +0.002 C 
ATOM     12  CD1 ILE A   2      40.759  15.551  92.897  0.00  0.00    +0.000 C 
ENDBRANCH   9  11
ENDBRANCH   6   9
ENDBRANCH   4   6
ENDBRANCH   1   2
BRANCH   1  13
ATOM     13  N   LYS A   1      39.938  21.466  94.929  0.00  0.00    -0.238 NA
ATOM     14  H   LYS A   1      39.711  21.563  93.919  0.00  0.00    +0.142 HD
ENDBRANCH   1  13
BRANCH   1  15
ATOM     15  CB  LYS A   1      37.680  20.552  95.055  0.00  0.00    +0.026 C 
BRANCH  15  16
ATOM     16  CG  LYS A   1      36.896  21.786  94.620  0.00  0.00    -0.000 C 
BRANCH  16  17
ATOM     17  CD  LYS A   1      36.426  22.575  95.828  0.00  0.00    -0.024 C 
BRANCH  17  18
ATOM     18  CE  LYS A   1      35.464  23.657  95.345  0.00  0.00    -0.086 C 
BRANCH  18  19
ATOM     19  NZ  LYS A   1      34.953  24.457  96.455  0.00  0.00    +0.380 N 
ATOM     20  HZ1 LYS A   1      34.446  23.840  97.121  0.00  0.00    -0.089 HD
ATOM     21  HZ2 LYS A   1      35.747  24.918  96.943  0.00  0.00    -0.089 HD
ATOM     22  HZ3 LYS A   1      34.303  25.181  96.088  0.00  0.00    -0.089 HD
ENDBRANCH  18  19
ENDBRANCH  17  18
ENDBRANCH  16  17
ENDBRANCH  15  16
ENDBRANCH   1  15
TORSDOF 11
REMARK  Name = ../refined-set-2016/1fd0/1fd0_pocket.pdb
REMARK  267 active torsions:
REMARK  status: ('A' for Active; 'I' for Inactive)
REMARK    1  A    between atoms: _1  and  _3
REMARK    2  A    between atoms: _3  and  _4
REMARK    3  A    between atoms: _3  and  _6
REMARK    4  A    between atoms: _6  and  _7
REMARK    5  A    between atoms: _10  and  _12
REMARK    6  A    between atoms: _12  and  _13
REMARK    7  A    between atoms: _12  and  _15
REMARK    8  A    between atoms: _15  and  _16
REMARK    9  A    between atoms: _23  and  _24
REMARK   10  A    between atoms: _29  and  _31
REMARK   11  A    between atoms: _31  and  _32
REMARK   12  A    between atoms: _31  and  _34
REMARK   13  A    between atoms: _34  and  _35
REMARK   14  A    between atoms: _38  and  _40
REMARK   15  A    between atoms: _40  and  _41
REMARK   16  A    between atoms: _40  and  _43
REMARK   17  A    between atoms: _43  and  _44
REMARK   18  A    between atoms: _47  and  _49
REMARK   19  A    between atoms: _49  and  _50
REMARK   20  A    between atoms: _49  and  _52
REMARK   21  A    between atoms: _52  and  _53
REMARK   22  A    between atoms: _63  and  _65
REMARK   23  A    between atoms: _65  and  _66
REMARK   24  A    between atoms: _65  and  _68
REMARK   25  A    between atoms: _68  and  _69
REMARK   26  A    between atoms: _69  and  _70
REMARK   27  A    between atoms: _70  and  _71
REMARK   28  A    between atoms: _71  and  _72
REMARK   29  A    between atoms: _76  and  _78
REMARK   30  A    between atoms: _78  and  _79
REMARK   31  A    between atoms: _78  and  _81
REMARK   32  A    between atoms: _81  and  _82
REMARK   33  A    between atoms: _88  and  _90
REMARK   34  A    between atoms: _90  and  _91
REMARK   35  A    between atoms: _90  and  _93
REMARK   36  A    between atoms: _93  and  _94
REMARK   37  A    between atoms: _96  and  _98
REMARK   38  A    between atoms: _98  and  _99
REMARK   39  A    between atoms: _98  and  _101
REMARK   40  A    between atoms: _101  and  _102
REMARK   41  A    between atoms: _102  and  _103
REMARK   42  A    between atoms: _106  and  _108
REMARK   43  A    between atoms: _108  and  _109
REMARK   44  A    between atoms: _108  and  _111
REMARK   45  A    between atoms: _111  and  _112
REMARK   46  A    between atoms: _115  and  _117
REMARK   47  A    between atoms: _117  and  _118
REMARK   48  A    between atoms: _121  and  _123
REMARK   49  A    between atoms: _123  and  _124
REMARK   50  A    between atoms: _123  and  _126
REMARK   51  A    between atoms: _126  and  _127
REMARK   52  A    between atoms: _130  and  _132
REMARK   53  A    between atoms: _132  and  _133
REMARK   54  A    between atoms: _132  and  _135
REMARK   55  A    between atoms: _135  and  _136
REMARK   56  A    between atoms: _136  and  _137
REMARK   57  A    between atoms: _137  and  _138
REMARK   58  A    between atoms: _138  and  _139
REMARK   59  A    between atoms: _143  and  _145
REMARK   60  A    between atoms: _145  and  _146
REMARK   61  A    between atoms: _145  and  _148
REMARK   62  A    between atoms: _150  and  _152
REMARK   63  A    between atoms: _152  and  _153
REMARK   64  A    between atoms: _152  and  _155
REMARK   65  A    between atoms: _155  and  _156
REMARK   66  A    between atoms: _159  and  _161
REMARK   67  A    between atoms: _161  and  _162
REMARK   68  A    between atoms: _161  and  _164
REMARK   69  A    between atoms: _164  and  _165
REMARK   70  A    between atoms: _165  and  _166
REMARK   71  A    between atoms: _166  and  _167
REMARK   72  A    between atoms: _167  and  _168
REMARK   73  A    between atoms: _172  and  _174
REMARK   74  A    between atoms: _174  and  _175
REMARK   75  A    between atoms: _174  and  _177
REMARK   76  A    between atoms: _177  and  _178
REMARK   77  A    between atoms: _181  and  _183
REMARK   78  A    between atoms: _183  and  _184
REMARK   79  A    between atoms: _183  and  _186
REMARK   80  A    between atoms: _188  and  _190
REMARK   81  A    between atoms: _190  and  _191
REMARK   82  A    between atoms: _190  and  _193
REMARK   83  A    between atoms: _193  and  _194
REMARK   84  A    between atoms: _197  and  _199
REMARK   85  A    between atoms: _199  and  _200
REMARK   86  A    between atoms: _199  and  _202
REMARK   87  A    between atoms: _202  and  _203
REMARK   88  A    between atoms: _206  and  _208
REMARK   89  A    between atoms: _208  and  _209
REMARK   90  A    between atoms: _208  and  _211
REMARK   91  A    between atoms: _211  and  _212
REMARK   92  A    between atoms: _215  and  _217
REMARK   93  A    between atoms: _217  and  _218
REMARK   94  A    between atoms: _217  and  _220
REMARK   95  A    between atoms: _220  and  _221
REMARK   96  A    between atoms: _224  and  _226
REMARK   97  A    between atoms: _226  and  _227
REMARK   98  A    between atoms: _226  and  _229
REMARK   99  A    between atoms: _229  and  _230
REMARK  100  A    between atoms: _230  and  _231
REMARK  101  A    between atoms: _233  and  _235
REMARK  102  A    between atoms: _235  and  _236
REMARK  103  A    between atoms: _235  and  _238
REMARK  104  A    between atoms: _238  and  _239
REMARK  105  A    between atoms: _242  and  _244
REMARK  106  A    between atoms: _244  and  _245
REMARK  107  A    between atoms: _244  and  _247
REMARK  108  A    between atoms: _247  and  _248
REMARK  109  A    between atoms: _248  and  _249
REMARK  110  A    between atoms: _249  and  _250
REMARK  111  A    between atoms: _259  and  _261
REMARK  112  A    between atoms: _261  and  _262
REMARK  113  A    between atoms: _261  and  _264
REMARK  114  A    between atoms: _264  and  _265
REMARK  115  A    between atoms: _268  and  _270
REMARK  116  A    between atoms: _270  and  _271
REMARK  117  A    between atoms: _270  and  _273
REMARK  118  A    between atoms: _275  and  _277
REMARK  119  A    between atoms: _277  and  _278
REMARK  120  A    between atoms: _277  and  _280
REMARK  121  A    between atoms: _280  and  _281
REMARK  122  A    between atoms: _284  and  _286
REMARK  123  A    between atoms: _286  and  _287
REMARK  124  A    between atoms: _286  and  _289
REMARK  125  A    between atoms: _289  and  _290
REMARK  126  A    between atoms: _290  and  _291
REMARK  127  A    between atoms: _291  and  _292
REMARK  128  A    between atoms: _301  and  _303
REMARK  129  A    between atoms: _303  and  _304
REMARK  130  A    between atoms: _303  and  _306
REMARK  131  A    between atoms: _306  and  _307
REMARK  132  A    between atoms: _307  and  _308
REMARK  133  A    between atoms: _310  and  _312
REMARK  134  A    between atoms: _312  and  _313
REMARK  135  A    between atoms: _312  and  _315
REMARK  136  A    between atoms: _315  and  _316
REMARK  137  A    between atoms: _319  and  _321
REMARK  138  A    between atoms: _321  and  _322
REMARK  139  A    between atoms: _321  and  _324
REMARK  140  A    between atoms: _324  and  _325
REMARK  141  A    between atoms: _331  and  _333
REMARK  142  A    between atoms: _333  and  _334
REMARK  143  A    between atoms: _333  and  _336
REMARK  144  A    between atoms: _336  and  _337
REMARK  145  A    between atoms: _339  and  _341
REMARK  146  A    between atoms: _341  and  _342
REMARK  147  A    between atoms: _341  and  _344
REMARK  148  A    between atoms: _344  and  _345
REMARK  149  A    between atoms: _348  and  _350
REMARK  150  A    between atoms: _350  and  _351
REMARK  151  A    between atoms: _353  and  _355
REMARK  152  A    between atoms: _355  and  _356
REMARK  153  A    between atoms: _355  and  _358
REMARK  154  A    between atoms: _358  and  _359
REMARK  155  A    between atoms: _362  and  _364
REMARK  156  A    between atoms: _364  and  _365
REMARK  157  A    between atoms: _364  and  _367
REMARK  158  A    between atoms: _367  and  _368
REMARK  159  A    between atoms: _368  and  _369
REMARK  160  A    between atoms: _371  and  _373
REMARK  161  A    between atoms: _373  and  _374
REMARK  162  A    between atoms: _373  and  _376
REMARK  163  A    between atoms: _376  and  _377
REMARK  164  A    between atoms: _382  and  _384
REMARK  165  A    between atoms: _384  and  _385
REMARK  166  A    between atoms: _388  and  _390
REMARK  167  A    between atoms: _390  and  _391
REMARK  168  A    between atoms: _393  and  _395
REMARK  169  A    between atoms: _395  and  _396
REMARK  170  A    between atoms: _395  and  _398
REMARK  171  A    between atoms: _398  and  _399
REMARK  172  A    between atoms: _405  and  _407
REMARK  173  A    between atoms: _407  and  _408
REMARK  174  A    between atoms: _410  and  _412
REMARK  175  A    between atoms: _412  and  _413
REMARK  176  A    between atoms: _412  and  _415
REMARK  177  A    between atoms: _415  and  _416
REMARK  178  A    between atoms: _419  and  _421
REMARK  179  A    between atoms: _421  and  _422
REMARK  180  A    between atoms: _421  and  _424
REMARK  181  A    between atoms: _424  and  _425
REMARK  182  A    between atoms: _428  and  _430
REMARK  183  A    between atoms: _430  and  _431
REMARK  184  A    between atoms: _430  and  _433
REMARK  185  A    between atoms: _436  and  _438
REMARK  186  A    between atoms: _438  and  _439
REMARK  187  A    between atoms: _438  and  _441
REMARK  188  A    between atoms: _441  and  _442
REMARK  189  A    between atoms: _445  and  _447
REMARK  190  A    between atoms: _447  and  _448
REMARK  191  A    between atoms: _447  and  _450
REMARK  192  A    between atoms: _450  and  _451
REMARK  193  A    between atoms: _453  and  _455
REMARK  194  A    between atoms: _455  and  _456
REMARK  195  A    between atoms: _455  and  _458
REMARK  196  A    between atoms: _458  and  _459
REMARK  197  A    between atoms: _459  and  _460
REMARK  198  A    between atoms: _460  and  _461
REMARK  199  A    between atoms: _461  and  _462
REMARK  200  A    between atoms: _466  and  _468
REMARK  201  A    between atoms: _468  and  _469
REMARK  202  A    between atoms: _471  and  _473
REMARK  203  A    between atoms: _473  and  _474
REMARK  204  A    between atoms: _477  and  _479
REMARK  205  A    between atoms: _479  and  _480
REMARK  206  A    between atoms: _479  and  _482
REMARK  207  A    between atoms: _483  and  _484
REMARK  208  A    between atoms: _487  and  _489
REMARK  209  A    between atoms: _489  and  _490
REMARK  210  A    between atoms: _489  and  _492
REMARK  211  A    between atoms: _492  and  _493
REMARK  212  A    between atoms: _493  and  _494
REMARK  213  A    between atoms: _494  and  _495
REMARK  214  A    between atoms: _504  and  _506
REMARK  215  A    between atoms: _506  and  _507
REMARK  216  A    between atoms: _510  and  _512
REMARK  217  A    between atoms: _512  and  _513
REMARK  218  A    between atoms: _512  and  _515
REMARK  219  A    between atoms: _515  and  _516
REMARK  220  A    between atoms: _519  and  _521
REMARK  221  A    between atoms: _521  and  _522
REMARK  222  A    between atoms: _521  and  _524
REMARK  223  A    between atoms: _524  and  _525
REMARK  224  A    between atoms: _528  and  _530
REMARK  225  A    between atoms: _530  and  _531
REMARK  226  A    between atoms: _530  and  _533
REMARK  227  A    between atoms: _533  and  _534
REMARK  228  A    between atoms: _537  and  _539
REMARK  229  A    between atoms: _539  and  _540
REMARK  230  A    between atoms: _539  and  _542
REMARK  231  A    between atoms: _542  and  _543
REMARK  232  A    between atoms: _543  and  _544
REMARK  233  A    between atoms: _544  and  _545
REMARK  234  A    between atoms: _545  and  _546
REMARK  235  A    between atoms: _550  and  _552
REMARK  236  A    between atoms: _552  and  _553
REMARK  237  A    between atoms: _552  and  _555
REMARK  238  A    between atoms: _555  and  _556
REMARK  239  A    between atoms: _559  and  _561
REMARK  240  A    between atoms: _561  and  _562
REMARK  241  A    between atoms: _561  and  _564
REMARK  242  A    between atoms: _564  and  _565
REMARK  243  A    between atoms: _565  and  _566
REMARK  244  A    between atoms: _569  and  _570
REMARK  245  A    between atoms: _575  and  _577
REMARK  246  A    between atoms: _577  and  _578
REMARK  247  A    between atoms: _577  and  _580
REMARK  248  A    between atoms: _580  and  _581
REMARK  249  A    between atoms: _584  and  _586
REMARK  250  A    between atoms: _586  and  _587
REMARK  251  A    between atoms: _586  and  _589
REMARK  252  A    between atoms: _589  and  _590
REMARK  253  A    between atoms: _593  and  _595
REMARK  254  A    between atoms: _595  and  _596
REMARK  255  A    between atoms: _595  and  _598
REMARK  256  A    between atoms: _598  and  _599
REMARK  257  A    between atoms: _599  and  _600
REMARK  258  A    between atoms: _600  and  _601
REMARK  259  A    between atoms: _610  and  _612
REMARK  260  A    between atoms: _612  and  _613
REMARK  261  A    between atoms: _612  and  _615
REMARK  262  A    between atoms: _615  and  _616
REMARK  263  A    between atoms: _616  and  _617
REMARK  264  A    between atoms: _619  and  _621
REMARK  265  A    between atoms: _621  and  _622
REMARK  266  A    between atoms: _621  and  _624
REMARK  267  A    between atoms: _624  and  _625
REMARK                            x       y       z     vdW  Elec       q    Type
REMARK                         _______ _______ _______ _____ _____    ______ ____
ROOT
ATOM      1  C   LEU A   7      35.669   9.324  90.615  0.00  0.00    +0.241 C 
ATOM      2  N   ARG A   8      35.994  10.585  90.861  0.00  0.00    -0.297 N 
ATOM      3  H   ARG A   8      36.998  10.823  90.995  0.00  0.00    +0.150 HD
ATOM      4  O   LEU A   7      34.518   8.977  90.438  0.00  0.00    -0.273 OA
ENDROOT
BRANCH   1   5
ATOM      5  CA  LEU A   7      36.800   8.292  90.606  0.00  0.00    +0.149 C 
BRANCH   5   7
ATOM      6  C   MET A   6      37.760   9.097  88.548  0.00  0.00    +0.241 C 
ATOM      7  N   LEU A   7      37.929   8.804  89.828  0.00  0.00    -0.297 N 
ATOM      8  H   LEU A   7      38.857   8.937  90.277  0.00  0.00    +0.150 HD
ATOM      9  O   MET A   6      36.674   8.909  87.963  0.00  0.00    -0.273 OA
BRANCH   6  10
ATOM     10  CA  MET A   6      38.932   9.628  87.746  0.00  0.00    +0.149 C 
BRANCH  10  13
ATOM     11  C   LEU A   5      38.965  11.799  88.846  0.00  0.00    +0.241 C 
ATOM     12  O   LEU A   5      37.773  11.995  88.521  0.00  0.00    -0.273 OA
ATOM     13  N   MET A   6      39.589  10.691  88.492  0.00  0.00    -0.297 N 
ATOM     14  H   MET A   6      40.588  10.573  88.756  0.00  0.00    +0.150 HD
BRANCH  11  15
ATOM     15  CA  LEU A   5      39.781  12.838  89.623  0.00  0.00    +0.149 C 
BRANCH  15  18
ATOM     16  C   ILE A   4      39.832  11.496  91.652  0.00  0.00    +0.241 C 
ATOM     17  O   ILE A   4      38.601  11.412  91.675  0.00  0.00    -0.273 OA
ATOM     18  N   LEU A   5      40.472  12.214  90.744  0.00  0.00    -0.297 N 
ATOM     19  H   LEU A   5      41.501  12.337  90.833  0.00  0.00    +0.150 HD
BRANCH  16  20
ATOM     20  CA  ILE A   4      40.670  10.702  92.656  0.00  0.00    +0.149 C 
BRANCH  20  22
ATOM     21  C   ASP A   3      41.777   9.107  91.206  0.00  0.00    +0.241 C 
ATOM     22  N   ILE A   4      41.853  10.131  92.043  0.00  0.00    -0.297 N 
ATOM     23  H   ILE A   4      42.785  10.535  92.266  0.00  0.00    +0.150 HD
ATOM     24  O   ASP A   3      40.693   8.565  90.877  0.00  0.00    -0.273 OA
BRANCH  21  25
ATOM     25  CA  ASP A   3      43.106   8.563  90.675  0.00  0.00    +0.160 C 
BRANCH  25  27
ATOM     26  C   LEU A   2      43.561  10.521  89.293  0.00  0.00    +0.241 C 
ATOM     27  N   ASP A   3      43.956   9.660  90.225  0.00  0.00    -0.297 N 
ATOM     28  H   ASP A   3      44.900   9.772  90.647  0.00  0.00    +0.150 HD
ATOM     29  O   LEU A   2      42.504  10.408  88.699  0.00  0.00    -0.273 OA
BRANCH  26  30
ATOM     30  CA  LEU A   2      44.464  11.715  89.003  0.00  0.00    +0.149 C 
BRANCH  30  33
ATOM     31  C   CYS A   1      44.400  12.751  91.192  0.00  0.00    +0.239 C 
ATOM     32  O   CYS A   1      43.181  12.874  91.092  0.00  0.00    -0.274 OA
ATOM     33  N   LEU A   2      45.131  12.173  90.200  0.00  0.00    -0.297 N 
ATOM     34  H   LEU A   2      46.160  12.062  90.303  0.00  0.00    +0.150 HD
BRANCH  31  35
ATOM     35  CA  CYS A   1      45.130  13.248  92.429  0.00  0.00    +0.156 C 
BRANCH  35  36
ATOM     36  N   CYS A   1      46.143  12.324  92.901  0.00  0.00    -0.237 NA
ATOM     37  H   CYS A   1      47.139  12.615  92.970  0.00  0.00    +0.142 HD
ENDBRANCH  35  36
BRANCH  35  38
ATOM     38  CB  CYS A   1      45.804  14.586  92.170  0.00  0.00    +0.095 C 
ATOM     39  SG  CYS A   1      44.578  15.885  92.099  0.00  0.00    -0.080 S 
ENDBRANCH  35  38
ENDBRANCH  31  35
ENDBRANCH  30  33
BRANCH  30  40
ATOM     40  CB  LEU A   2      45.464  11.447  87.883  0.00  0.00    +0.029 C 
BRANCH  40  41
ATOM     41  CG  LEU A   2      44.893  11.183  86.493  0.00  0.00    +0.002 C 
ATOM     42  CD2 LEU A   2      43.927  12.260  86.044  0.00  0.00    +0.000 C 
ATOM     43  CD1 LEU A   2      46.048  11.002  85.482  0.00  0.00    +0.000 C 
ENDBRANCH  40  41
ENDBRANCH  30  40
ENDBRANCH  26  30
ENDBRANCH  25  27
BRANCH  25  44
ATOM     44  CB  ASP A   3      43.764   7.773  91.795  0.00  0.00    +0.143 C 
BRANCH  44  45
ATOM     45  CG  ASP A   3      45.039   7.020  91.563  0.00  0.00    +0.367 C 
ATOM     46  OD2 ASP A   3      45.828   6.941  92.547  0.00  0.00    -0.246 OA
ATOM     47  OD1 ASP A   3      45.285   6.512  90.472  0.00  0.00    -0.246 OA
ENDBRANCH  44  45
ENDBRANCH  25  44
ENDBRANCH  21  25
ENDBRANCH  20  22
BRANCH  20  48
ATOM     48  CB  ILE A   4      41.058  11.524  93.901  0.00  0.00    +0.027 C 
ATOM     49  CG2 ILE A   4      39.848  12.266  94.469  0.00  0.00    +0.002 C 
BRANCH  48  50
ATOM     50  CG1 ILE A   4      41.700  10.643  94.973  0.00  0.00    +0.002 C 
ATOM     51  CD1 ILE A   4      42.385  11.396  96.084  0.00  0.00    +0.000 C 
ENDBRANCH  48  50
ENDBRANCH  20  48
ENDBRANCH  16  20
ENDBRANCH  15  18
BRANCH  15  52
ATOM     52  CB  LEU A   5      40.732  13.570  88.695  0.00  0.00    +0.029 C 
BRANCH  52  53
ATOM     53  CG  LEU A   5      41.265  14.906  89.188  0.00  0.00    +0.002 C 
ATOM     54  CD2 LEU A   5      40.179  15.973  89.191  0.00  0.00    +0.000 C 
ATOM     55  CD1 LEU A   5      42.504  15.308  88.413  0.00  0.00    +0.000 C 
ENDBRANCH  52  53
ENDBRANCH  15  52
ENDBRANCH  11  15
ENDBRANCH  10  13
BRANCH  10  56
ATOM     56  CB  MET A   6      39.959   8.511  87.467  0.00  0.00    +0.041 C 
BRANCH  56  57
ATOM     57  CG  MET A   6      40.938   8.820  86.329  0.00  0.00    +0.060 C 
BRANCH  57  58
ATOM     58  SD  MET A   6      40.176   8.813  84.705  0.00  0.00    -0.139 S 
ATOM     59  CE  MET A   6      41.605   9.169  83.681  0.00  0.00    +0.069 C 
ENDBRANCH  57  58
ENDBRANCH  56  57
ENDBRANCH  10  56
ENDBRANCH   6  10
ENDBRANCH   5   7
BRANCH   5  60
ATOM     60  CB  LEU A   7      37.287   7.995  92.022  0.00  0.00    +0.029 C 
BRANCH  60  61
ATOM     61  CG  LEU A   7      36.216   7.477  92.991  0.00  0.00    +0.002 C 
ATOM     62  CD2 LEU A   7      36.831   7.260  94.355  0.00  0.00    +0.000 C 
ATOM     63  CD1 LEU A   7      35.516   6.211  92.528  0.00  0.00    +0.000 C 
ENDBRANCH  60  61
ENDBRANCH   5  60
ENDBRANCH   1   5
BRANCH   2  64
ATOM     64  CA  ARG A   8      35.007  11.652  90.952  0.00  0.00    +0.149 C 
BRANCH  64  65
ATOM     65  C   ARG A   8      34.218  11.734  89.670  0.00  0.00    +0.241 C 
ATOM     66  O   ARG A   8      32.980  11.735  89.719  0.00  0.00    -0.273 OA
ATOM     67  N   ILE A   9      34.834  11.830  88.514  0.00  0.00    -0.297 N 
ATOM     68  H   ILE A   9      35.870  11.750  88.462  0.00  0.00    +0.150 HD
BRANCH  67  69
ATOM     69  CA  ILE A   9      34.047  12.051  87.297  0.00  0.00    +0.149 C 
BRANCH  69  70
ATOM     70  C   ILE A   9      33.190  10.821  87.038  0.00  0.00    +0.241 C 
ATOM     71  N   CYS A  10      33.725   9.623  87.343  0.00  0.00    -0.296 N 
ATOM     72  H   CYS A  10      34.672   9.557  87.767  0.00  0.00    +0.150 HD
ATOM     73  O   ILE A   9      32.073  10.939  86.567  0.00  0.00    -0.273 OA
BRANCH  71  74
ATOM     74  CA  CYS A  10      32.943   8.413  87.064  0.00  0.00    +0.160 C 
BRANCH  74  75
ATOM     75  C   CYS A  10      31.757   8.243  88.009  0.00  0.00    +0.242 C 
ATOM     76  N   THR A  11      31.749   8.869  89.194  0.00  0.00    -0.295 N 
ATOM     77  H   THR A  11      32.621   9.340  89.509  0.00  0.00    +0.150 HD
ATOM     78  O   CYS A  10      30.785   7.568  87.660  0.00  0.00    -0.273 OA
BRANCH  76  79
ATOM     79  CA  THR A  11      30.577   8.923  90.067  0.00  0.00    +0.176 C 
BRANCH  79  80
ATOM     80  C   THR A  11      29.515   9.845  89.496  0.00  0.00    +0.243 C 
ATOM     81  O   THR A  11      28.391   9.857  90.022  0.00  0.00    -0.273 OA
ATOM     82  N   ARG A  12      29.858  10.640  88.488  0.00  0.00    -0.298 N 
ATOM     83  H   ARG A  12      30.825  10.578  88.109  0.00  0.00    +0.150 HD
BRANCH  82  84
ATOM     84  CA  ARG A  12      28.931  11.597  87.891  0.00  0.00    +0.137 C 
BRANCH  84  85
ATOM     85  C   ARG A  12      28.430  11.096  86.543  0.00  0.00    +0.227 C 
ATOM     86  O   ARG A  12      27.973  11.880  85.684  0.00  0.00    -0.286 OA
ENDBRANCH  84  85
BRANCH  84  87
ATOM     87  CB  ARG A  12      29.552  12.994  87.718  0.00  0.00    +0.031 C 
BRANCH  87  88
ATOM     88  CG  ARG A  12      29.978  13.697  88.987  0.00  0.00    +0.045 C 
BRANCH  88  89
ATOM     89  CD  ARG A  12      28.964  14.728  89.430  0.00  0.00    +0.174 C 
BRANCH  89  90
ATOM     90  NE  ARG A  12      29.355  15.552  90.567  0.00  0.00    -0.265 N 
ATOM     91  HE  ARG A  12      28.898  15.393  91.488  0.00  0.00    +0.259 HD
ATOM     92  CZ  ARG A  12      30.268  16.489  90.460  0.00  0.00    +0.342 C 
ATOM     93  NH2 ARG A  12      30.567  17.186  91.519  0.00  0.00    -0.292 N 
ATOM     94 HH21 ARG A  12      30.086  16.994  92.421  0.00  0.00    +0.255 HD
ATOM     95 HH22 ARG A  12      31.287  17.935  91.463  0.00  0.00    +0.255 HD
ATOM     96  NH1 ARG A  12      30.874  16.744  89.308  0.00  0.00    -0.292 N 
ATOM     97 HH11 ARG A  12      31.594  17.493  89.254  0.00  0.00    +0.255 HD
ATOM     98 HH12 ARG A  12      30.629  16.195  88.459  0.00  0.00    +0.255 HD
ENDBRANCH  89  90
ENDBRANCH  88  89
ENDBRANCH  87  88
ENDBRANCH  84  87
ENDBRANCH  82  84
ENDBRANCH  79  80
BRANCH  79  99
ATOM     99  CB  THR A  11      30.902   9.358  91.514  0.00  0.00    +0.137 C 
ATOM    100  CG2 THR A  11      32.138   8.638  92.028  0.00  0.00    +0.034 C 
BRANCH  99 101
ATOM    101  OG1 THR A  11      31.217  10.751  91.615  0.00  0.00    -0.382 OA
ATOM    102  HG1 THR A  11      32.007  10.951  91.053  0.00  0.00    +0.210 HD
ENDBRANCH  99 101
ENDBRANCH  79  99
ENDBRANCH  76  79
ENDBRANCH  74  75
BRANCH  74 103
ATOM    103  CB  CYS A  10      33.886   7.202  87.108  0.00  0.00    +0.098 C 
ATOM    104  SG  CYS A  10      35.001   7.155  85.706  0.00  0.00    -0.080 S 
ENDBRANCH  74 103
ENDBRANCH  71  74
ENDBRANCH  69  70
BRANCH  69 105
ATOM    105  CB  ILE A   9      34.913  12.454  86.091  0.00  0.00    +0.027 C 
ATOM    106  CG2 ILE A   9      35.739  11.344  85.534  0.00  0.00    +0.002 C 
BRANCH 105 107
ATOM    107  CG1 ILE A   9      34.040  13.104  84.988  0.00  0.00    +0.002 C 
ATOM    108  CD1 ILE A   9      33.222  14.353  85.393  0.00  0.00    +0.000 C 
ENDBRANCH 105 107
ENDBRANCH  69 105
ENDBRANCH  67  69
ENDBRANCH  64  65
BRANCH  64 109
ATOM    109  CB  ARG A   8      35.685  12.974  91.331  0.00  0.00    +0.033 C 
BRANCH 109 110
ATOM    110  CG  ARG A   8      36.014  13.144  92.813  0.00  0.00    +0.045 C 
BRANCH 110 111
ATOM    111  CD  ARG A   8      36.680  14.476  93.121  0.00  0.00    +0.174 C 
BRANCH 111 112
ATOM    112  NE  ARG A   8      36.694  14.620  94.593  0.00  0.00    -0.265 N 
ATOM    113  CZ  ARG A   8      36.555  15.755  95.266  0.00  0.00    +0.342 C 
ATOM    114  NH2 ARG A   8      36.521  15.752  96.591  0.00  0.00    -0.292 N 
ATOM    115 HH21 ARG A   8      36.604  14.855  97.111  0.00  0.00    +0.255 HD
ATOM    116 HH22 ARG A   8      36.412  16.646  97.110  0.00  0.00    +0.255 HD
ATOM    117  NH1 ARG A   8      36.495  16.916  94.666  0.00  0.00    -0.292 N 
ATOM    118 HH11 ARG A   8      36.386  17.786  95.226  0.00  0.00    +0.255 HD
ATOM    119 HH12 ARG A   8      36.557  16.969  93.629  0.00  0.00    +0.255 HD
ATOM    120  HE  ARG A   8      36.825  13.752  95.151  0.00  0.00    +0.259 HD
ENDBRANCH 111 112
ENDBRANCH 110 111
ENDBRANCH 109 110
ENDBRANCH  64 109
ENDBRANCH   2  64
TORSDOF 51
REMARK  Name = ../refined-set-2016/1fd0/1fd0_pocket.pdb
REMARK  267 active torsions:
REMARK  status: ('A' for Active; 'I' for Inactive)
REMARK    1  A    between atoms: _1  and  _3
REMARK    2  A    between atoms: _3  and  _4
REMARK    3  A    between atoms: _3  and  _6
REMARK    4  A    between atoms: _6  and  _7
REMARK    5  A    between atoms: _10  and  _12
REMARK    6  A    between atoms: _12  and  _13
REMARK    7  A    between atoms: _12  and  _15
REMARK    8  A    between atoms: _15  and  _16
REMARK    9  A    between atoms: _23  and  _24
REMARK   10  A    between atoms: _29  and  _31
REMARK   11  A    between atoms: _31  and  _32
REMARK   12  A    between atoms: _31  and  _34
REMARK   13  A    between atoms: _34  and  _35
REMARK   14  A    between atoms: _38  and  _40
REMARK   15  A    between atoms: _40  and  _41
REMARK   16  A    between atoms: _40  and  _43
REMARK   17  A    between atoms: _43  and  _44
REMARK   18  A    between atoms: _47  and  _49
REMARK   19  A    between atoms: _49  and  _50
REMARK   20  A    between atoms: _49  and  _52
REMARK   21  A    between atoms: _52  and  _53
REMARK   22  A    between atoms: _63  and  _65
REMARK   23  A    between atoms: _65  and  _66
REMARK   24  A    between atoms: _65  and  _68
REMARK   25  A    between atoms: _68  and  _69
REMARK   26  A    between atoms: _69  and  _70
REMARK   27  A    between atoms: _70  and  _71
REMARK   28  A    between atoms: _71  and  _72
REMARK   29  A    between atoms: _76  and  _78
REMARK   30  A    between atoms: _78  and  _79
REMARK   31  A    between atoms: _78  and  _81
REMARK   32  A    between atoms: _81  and  _82
REMARK   33  A    between atoms: _88  and  _90
REMARK   34  A    between atoms: _90  and  _91
REMARK   35  A    between atoms: _90  and  _93
REMARK   36  A    between atoms: _93  and  _94
REMARK   37  A    between atoms: _96  and  _98
REMARK   38  A    between atoms: _98  and  _99
REMARK   39  A    between atoms: _98  and  _101
REMARK   40  A    between atoms: _101  and  _102
REMARK   41  A    between atoms: _102  and  _103
REMARK   42  A    between atoms: _106  and  _108
REMARK   43  A    between atoms: _108  and  _109
REMARK   44  A    between atoms: _108  and  _111
REMARK   45  A    between atoms: _111  and  _112
REMARK   46  A    between atoms: _115  and  _117
REMARK   47  A    between atoms: _117  and  _118
REMARK   48  A    between atoms: _121  and  _123
REMARK   49  A    between atoms: _123  and  _124
REMARK   50  A    between atoms: _123  and  _126
REMARK   51  A    between atoms: _126  and  _127
REMARK   52  A    between atoms: _130  and  _132
REMARK   53  A    between atoms: _132  and  _133
REMARK   54  A    between atoms: _132  and  _135
REMARK   55  A    between atoms: _135  and  _136
REMARK   56  A    between atoms: _136  and  _137
REMARK   57  A    between atoms: _137  and  _138
REMARK   58  A    between atoms: _138  and  _139
REMARK   59  A    between atoms: _143  and  _145
REMARK   60  A    between atoms: _145  and  _146
REMARK   61  A    between atoms: _145  and  _148
REMARK   62  A    between atoms: _150  and  _152
REMARK   63  A    between atoms: _152  and  _153
REMARK   64  A    between atoms: _152  and  _155
REMARK   65  A    between atoms: _155  and  _156
REMARK   66  A    between atoms: _159  and  _161
REMARK   67  A    between atoms: _161  and  _162
REMARK   68  A    between atoms: _161  and  _164
REMARK   69  A    between atoms: _164  and  _165
REMARK   70  A    between atoms: _165  and  _166
REMARK   71  A    between atoms: _166  and  _167
REMARK   72  A    between atoms: _167  and  _168
REMARK   73  A    between atoms: _172  and  _174
REMARK   74  A    between atoms: _174  and  _175
REMARK   75  A    between atoms: _174  and  _177
REMARK   76  A    between atoms: _177  and  _178
REMARK   77  A    between atoms: _181  and  _183
REMARK   78  A    between atoms: _183  and  _184
REMARK   79  A    between atoms: _183  and  _186
REMARK   80  A    between atoms: _188  and  _190
REMARK   81  A    between atoms: _190  and  _191
REMARK   82  A    between atoms: _190  and  _193
REMARK   83  A    between atoms: _193  and  _194
REMARK   84  A    between atoms: _197  and  _199
REMARK   85  A    between atoms: _199  and  _200
REMARK   86  A    between atoms: _199  and  _202
REMARK   87  A    between atoms: _202  and  _203
REMARK   88  A    between atoms: _206  and  _208
REMARK   89  A    between atoms: _208  and  _209
REMARK   90  A    between atoms: _208  and  _211
REMARK   91  A    between atoms: _211  and  _212
REMARK   92  A    between atoms: _215  and  _217
REMARK   93  A    between atoms: _217  and  _218
REMARK   94  A    between atoms: _217  and  _220
REMARK   95  A    between atoms: _220  and  _221
REMARK   96  A    between atoms: _224  and  _226
REMARK   97  A    between atoms: _226  and  _227
REMARK   98  A    between atoms: _226  and  _229
REMARK   99  A    between atoms: _229  and  _230
REMARK  100  A    between atoms: _230  and  _231
REMARK  101  A    between atoms: _233  and  _235
REMARK  102  A    between atoms: _235  and  _236
REMARK  103  A    between atoms: _235  and  _238
REMARK  104  A    between atoms: _238  and  _239
REMARK  105  A    between atoms: _242  and  _244
REMARK  106  A    between atoms: _244  and  _245
REMARK  107  A    between atoms: _244  and  _247
REMARK  108  A    between atoms: _247  and  _248
REMARK  109  A    between atoms: _248  and  _249
REMARK  110  A    between atoms: _249  and  _250
REMARK  111  A    between atoms: _259  and  _261
REMARK  112  A    between atoms: _261  and  _262
REMARK  113  A    between atoms: _261  and  _264
REMARK  114  A    between atoms: _264  and  _265
REMARK  115  A    between atoms: _268  and  _270
REMARK  116  A    between atoms: _270  and  _271
REMARK  117  A    between atoms: _270  and  _273
REMARK  118  A    between atoms: _275  and  _277
REMARK  119  A    between atoms: _277  and  _278
REMARK  120  A    between atoms: _277  and  _280
REMARK  121  A    between atoms: _280  and  _281
REMARK  122  A    between atoms: _284  and  _286
REMARK  123  A    between atoms: _286  and  _287
REMARK  124  A    between atoms: _286  and  _289
REMARK  125  A    between atoms: _289  and  _290
REMARK  126  A    between atoms: _290  and  _291
REMARK  127  A    between atoms: _291  and  _292
REMARK  128  A    between atoms: _301  and  _303
REMARK  129  A    between atoms: _303  and  _304
REMARK  130  A    between atoms: _303  and  _306
REMARK  131  A    between atoms: _306  and  _307
REMARK  132  A    between atoms: _307  and  _308
REMARK  133  A    between atoms: _310  and  _312
REMARK  134  A    between atoms: _312  and  _313
REMARK  135  A    between atoms: _312  and  _315
REMARK  136  A    between atoms: _315  and  _316
REMARK  137  A    between atoms: _319  and  _321
REMARK  138  A    between atoms: _321  and  _322
REMARK  139  A    between atoms: _321  and  _324
REMARK  140  A    between atoms: _324  and  _325
REMARK  141  A    between atoms: _331  and  _333
REMARK  142  A    between atoms: _333  and  _334
REMARK  143  A    between atoms: _333  and  _336
REMARK  144  A    between atoms: _336  and  _337
REMARK  145  A    between atoms: _339  and  _341
REMARK  146  A    between atoms: _341  and  _342
REMARK  147  A    between atoms: _341  and  _344
REMARK  148  A    between atoms: _344  and  _345
REMARK  149  A    between atoms: _348  and  _350
REMARK  150  A    between atoms: _350  and  _351
REMARK  151  A    between atoms: _353  and  _355
REMARK  152  A    between atoms: _355  and  _356
REMARK  153  A    between atoms: _355  and  _358
REMARK  154  A    between atoms: _358  and  _359
REMARK  155  A    between atoms: _362  and  _364
REMARK  156  A    between atoms: _364  and  _365
REMARK  157  A    between atoms: _364  and  _367
REMARK  158  A    between atoms: _367  and  _368
REMARK  159  A    between atoms: _368  and  _369
REMARK  160  A    between atoms: _371  and  _373
REMARK  161  A    between atoms: _373  and  _374
REMARK  162  A    between atoms: _373  and  _376
REMARK  163  A    between atoms: _376  and  _377
REMARK  164  A    between atoms: _382  and  _384
REMARK  165  A    between atoms: _384  and  _385
REMARK  166  A    between atoms: _388  and  _390
REMARK  167  A    between atoms: _390  and  _391
REMARK  168  A    between atoms: _393  and  _395
REMARK  169  A    between atoms: _395  and  _396
REMARK  170  A    between atoms: _395  and  _398
REMARK  171  A    between atoms: _398  and  _399
REMARK  172  A    between atoms: _405  and  _407
REMARK  173  A    between atoms: _407  and  _408
REMARK  174  A    between atoms: _410  and  _412
REMARK  175  A    between atoms: _412  and  _413
REMARK  176  A    between atoms: _412  and  _415
REMARK  177  A    between atoms: _415  and  _416
REMARK  178  A    between atoms: _419  and  _421
REMARK  179  A    between atoms: _421  and  _422
REMARK  180  A    between atoms: _421  and  _424
REMARK  181  A    between atoms: _424  and  _425
REMARK  182  A    between atoms: _428  and  _430
REMARK  183  A    between atoms: _430  and  _431
REMARK  184  A    between atoms: _430  and  _433
REMARK  185  A    between atoms: _436  and  _438
REMARK  186  A    between atoms: _438  and  _439
REMARK  187  A    between atoms: _438  and  _441
REMARK  188  A    between atoms: _441  and  _442
REMARK  189  A    between atoms: _445  and  _447
REMARK  190  A    between atoms: _447  and  _448
REMARK  191  A    between atoms: _447  and  _450
REMARK  192  A    between atoms: _450  and  _451
REMARK  193  A    between atoms: _453  and  _455
REMARK  194  A    between atoms: _455  and  _456
REMARK  195  A    between atoms: _455  and  _458
REMARK  196  A    between atoms: _458  and  _459
REMARK  197  A    between atoms: _459  and  _460
REMARK  198  A    between atoms: _460  and  _461
REMARK  199  A    between atoms: _461  and  _462
REMARK  200  A    between atoms: _466  and  _468
REMARK  201  A    between atoms: _468  and  _469
REMARK  202  A    between atoms: _471  and  _473
REMARK  203  A    between atoms: _473  and  _474
REMARK  204  A    between atoms: _477  and  _479
REMARK  205  A    between atoms: _479  and  _480
REMARK  206  A    between atoms: _479  and  _482
REMARK  207  A    between atoms: _483  and  _484
REMARK  208  A    between atoms: _487  and  _489
REMARK  209  A    between atoms: _489  and  _490
REMARK  210  A    between atoms: _489  and  _492
REMARK  211  A    between atoms: _492  and  _493
REMARK  212  A    between atoms: _493  and  _494
REMARK  213  A    between atoms: _494  and  _495
REMARK  214  A    between atoms: _504  and  _506
REMARK  215  A    between atoms: _506  and  _507
REMARK  216  A    between atoms: _510  and  _512
REMARK  217  A    between atoms: _512  and  _513
REMARK  218  A    between atoms: _512  and  _515
REMARK  219  A    between atoms: _515  and  _516
REMARK  220  A    between atoms: _519  and  _521
REMARK  221  A    between atoms: _521  and  _522
REMARK  222  A    between atoms: _521  and  _524
REMARK  223  A    between atoms: _524  and  _525
REMARK  224  A    between atoms: _528  and  _530
REMARK  225  A    between atoms: _530  and  _531
REMARK  226  A    between atoms: _530  and  _533
REMARK  227  A    between atoms: _533  and  _534
REMARK  228  A    between atoms: _537  and  _539
REMARK  229  A    between atoms: _539  and  _540
REMARK  230  A    between atoms: _539  and  _542
REMARK  231  A    between atoms: _542  and  _543
REMARK  232  A    between atoms: _543  and  _544
REMARK  233  A    between atoms: _544  and  _545
REMARK  234  A    between atoms: _545  and  _546
REMARK  235  A    between atoms: _550  and  _552
REMARK  236  A    between atoms: _552  and  _553
REMARK  237  A    between atoms: _552  and  _555
REMARK  238  A    between atoms: _555  and  _556
REMARK  239  A    between atoms: _559  and  _561
REMARK  240  A    between atoms: _561  and  _562
REMARK  241  A    between atoms: _561  and  _564
REMARK  242  A    between atoms: _564  and  _565
REMARK  243  A    between atoms: _565  and  _566
REMARK  244  A    between atoms: _569  and  _570
REMARK  245  A    between atoms: _575  and  _577
REMARK  246  A    between atoms: _577  and  _578
REMARK  247  A    between atoms: _577  and  _580
REMARK  248  A    between atoms: _580  and  _581
REMARK  249  A    between atoms: _584  and  _586
REMARK  250  A    between atoms: _586  and  _587
REMARK  251  A    between atoms: _586  and  _589
REMARK  252  A    between atoms: _589  and  _590
REMARK  253  A    between atoms: _593  and  _595
REMARK  254  A    between atoms: _595  and  _596
REMARK  255  A    between atoms: _595  and  _598
REMARK  256  A    between atoms: _598  and  _599
REMARK  257  A    between atoms: _599  and  _600
REMARK  258  A    between atoms: _600  and  _601
REMARK  259  A    between atoms: _610  and  _612
REMARK  260  A    between atoms: _612  and  _613
REMARK  261  A    between atoms: _612  and  _615
REMARK  262  A    between atoms: _615  and  _616
REMARK  263  A    between atoms: _616  and  _617
REMARK  264  A    between atoms: _619  and  _621
REMARK  265  A    between atoms: _621  and  _622
REMARK  266  A    between atoms: _621  and  _624
REMARK  267  A    between atoms: _624  and  _625
REMARK                            x       y       z     vdW  Elec       q    Type
REMARK                         _______ _______ _______ _____ _____    ______ ____
ROOT
ATOM      1  C   PHE A   3      30.601  19.191  87.207  0.00  0.00    +0.241 C 
ATOM      2  N   SER A   4      31.448  19.777  88.050  0.00  0.00    -0.295 N 
ATOM      3  H   SER A   4      32.465  19.800  87.834  0.00  0.00    +0.150 HD
ATOM      4  O   PHE A   3      29.399  19.325  87.324  0.00  0.00    -0.273 OA
ENDROOT
BRANCH   2   5
ATOM      5  CA  SER A   4      30.944  20.391  89.287  0.00  0.00    +0.178 C 
BRANCH   5   6
ATOM      6  C   SER A   4      30.205  21.704  89.077  0.00  0.00    +0.243 C 
ATOM      7  O   SER A   4      29.589  22.172  90.056  0.00  0.00    -0.273 OA
ATOM      8  N   ASP A   5      30.299  22.273  87.887  0.00  0.00    -0.296 N 
ATOM      9  H   ASP A   5      30.953  21.877  87.182  0.00  0.00    +0.150 HD
BRANCH   8  10
ATOM     10  CA  ASP A   5      29.493  23.460  87.541  0.00  0.00    +0.160 C 
BRANCH  10  11
ATOM     11  C   ASP A   5      28.188  23.059  86.831  0.00  0.00    +0.241 C 
ATOM     12  N   GLY A   6      27.912  21.763  86.784  0.00  0.00    -0.295 N 
ATOM     13  H   GLY A   6      28.550  21.113  87.287  0.00  0.00    +0.150 HD
ATOM     14  O   ASP A   5      27.459  23.941  86.374  0.00  0.00    -0.273 OA
BRANCH  12  15
ATOM     15  CA  GLY A   6      26.790  21.194  86.085  0.00  0.00    +0.176 C 
BRANCH  15  16
ATOM     16  C   GLY A   6      27.028  20.859  84.622  0.00  0.00    +0.243 C 
ATOM     17  N   LEU A   7      28.156  21.219  84.036  0.00  0.00    -0.298 N 
ATOM     18  H   LEU A   7      28.881  21.720  84.588  0.00  0.00    +0.150 HD
ATOM     19  O   GLY A   6      26.144  20.254  83.963  0.00  0.00    -0.273 OA
BRANCH  17  20
ATOM     20  CA  LEU A   7      28.405  20.924  82.619  0.00  0.00    +0.137 C 
BRANCH  20  21
ATOM     21  C   LEU A   7      28.290  19.422  82.413  0.00  0.00    +0.227 C 
ATOM     22  O   LEU A   7      28.936  18.640  83.099  0.00  0.00    -0.286 OA
ENDBRANCH  20  21
BRANCH  20  23
ATOM     23  CB  LEU A   7      29.784  21.387  82.153  0.00  0.00    +0.028 C 
BRANCH  23  24
ATOM     24  CG  LEU A   7      30.169  21.003  80.713  0.00  0.00    +0.002 C 
ATOM     25  CD2 LEU A   7      31.658  21.290  80.500  0.00  0.00    +0.000 C 
ATOM     26  CD1 LEU A   7      29.312  21.709  79.681  0.00  0.00    +0.000 C 
ENDBRANCH  23  24
ENDBRANCH  20  23
ENDBRANCH  17  20
ENDBRANCH  15  16
ENDBRANCH  12  15
ENDBRANCH  10  11
BRANCH  10  27
ATOM     27  CB  ASP A   5      30.256  24.419  86.662  0.00  0.00    +0.143 C 
BRANCH  27  28
ATOM     28  CG  ASP A   5      30.488  23.920  85.244  0.00  0.00    +0.367 C 
ATOM     29  OD2 ASP A   5      30.408  22.706  85.042  0.00  0.00    -0.246 OA
ATOM     30  OD1 ASP A   5      30.771  24.763  84.346  0.00  0.00    -0.246 OA
ENDBRANCH  27  28
ENDBRANCH  10  27
ENDBRANCH   8  10
ENDBRANCH   5   6
BRANCH   5  31
ATOM     31  CB  SER A   4      32.091  20.540  90.285  0.00  0.00    +0.166 C 
BRANCH  31  32
ATOM     32  OG  SER A   4      32.486  19.276  90.828  0.00  0.00    -0.380 OA
ATOM     33  H   SER A   4      32.785  18.682  90.095  0.00  0.00    +0.211 HD
ENDBRANCH  31  32
ENDBRANCH   5  31
ENDBRANCH   2   5
BRANCH   1  34
ATOM     34  CA  PHE A   3      31.252  18.351  86.128  0.00  0.00    +0.153 C 
BRANCH  34  37
ATOM     35  C   THR A   2      29.741  16.432  85.685  0.00  0.00    +0.243 C 
ATOM     36  O   THR A   2      30.132  15.758  86.633  0.00  0.00    -0.273 OA
ATOM     37  N   PHE A   3      30.225  17.629  85.374  0.00  0.00    -0.297 N 
ATOM     38  H   PHE A   3      29.843  18.092  84.525  0.00  0.00    +0.150 HD
BRANCH  35  39
ATOM     39  CA  THR A   2      28.669  15.886  84.751  0.00  0.00    +0.176 C 
BRANCH  39  41
ATOM     40  C   MET A   1      29.144  14.187  83.042  0.00  0.00    +0.238 C 
ATOM     41  N   THR A   2      28.989  14.533  84.299  0.00  0.00    -0.295 N 
ATOM     42  H   THR A   2      29.102  13.794  85.022  0.00  0.00    +0.150 HD
ATOM     43  O   MET A   1      29.115  14.980  82.111  0.00  0.00    -0.274 OA
BRANCH  40  44
ATOM     44  CA  MET A   1      29.343  12.706  82.733  0.00  0.00    +0.146 C 
BRANCH  44  45
ATOM     45  N   MET A   1      28.748  12.421  81.422  0.00  0.00    -0.238 NA
ATOM     46  H   MET A   1      29.058  12.957  80.586  0.00  0.00    +0.142 HD
ENDBRANCH  44  45
BRANCH  44  47
ATOM     47  CB  MET A   1      30.813  12.303  82.766  0.00  0.00    +0.038 C 
BRANCH  47  48
ATOM     48  CG  MET A   1      31.004  10.783  82.600  0.00  0.00    +0.060 C 
BRANCH  48  49
ATOM     49  SD  MET A   1      32.686  10.230  82.773  0.00  0.00    -0.139 S 
ATOM     50  CE  MET A   1      32.404   8.498  82.502  0.00  0.00    +0.069 C 
ENDBRANCH  48  49
ENDBRANCH  47  48
ENDBRANCH  44  47
ENDBRANCH  40  44
ENDBRANCH  39  41
BRANCH  39  51
ATOM     51  CB  THR A   2      27.310  15.912  85.488  0.00  0.00    +0.137 C 
ATOM     52  CG2 THR A   2      26.965  17.281  86.039  0.00  0.00    +0.034 C 
BRANCH  51  53
ATOM     53  OG1 THR A   2      26.310  15.475  84.542  0.00  0.00    -0.382 OA
ATOM     54  HG1 THR A   2      26.525  14.559  84.236  0.00  0.00    +0.210 HD
ENDBRANCH  51  53
ENDBRANCH  39  51
ENDBRANCH  35  39
ENDBRANCH  34  37
BRANCH  34  55
ATOM     55  CB  PHE A   3      32.064  19.205  85.158  0.00  0.00    +0.055 C 
BRANCH  55  56
ATOM     56  CG  PHE A   3      32.777  18.344  84.109  0.00  0.00    -0.020 A 
ATOM     57  CD2 PHE A   3      34.086  17.964  84.368  0.00  0.00    -0.004 A 
ATOM     58  CE2 PHE A   3      34.763  17.144  83.475  0.00  0.00    -0.000 A 
ATOM     59  CZ  PHE A   3      34.133  16.725  82.302  0.00  0.00    -0.000 A 
ATOM     60  CE1 PHE A   3      32.831  17.114  82.039  0.00  0.00    -0.000 A 
ATOM     61  CD1 PHE A   3      32.156  17.917  82.940  0.00  0.00    -0.004 A 
ENDBRANCH  55  56
ENDBRANCH  34  55
ENDBRANCH   1  34
TORSDOF 27
REMARK  Name = ../refined-set-2016/1fd0/1fd0_pocket.pdb
REMARK  267 active torsions:
REMARK  status: ('A' for Active; 'I' for Inactive)
REMARK    1  A    between atoms: _1  and  _3
REMARK    2  A    between atoms: _3  and  _4
REMARK    3  A    between atoms: _3  and  _6
REMARK    4  A    between atoms: _6  and  _7
REMARK    5  A    between atoms: _10  and  _12
REMARK    6  A    between atoms: _12  and  _13
REMARK    7  A    between atoms: _12  and  _15
REMARK    8  A    between atoms: _15  and  _16
REMARK    9  A    between atoms: _23  and  _24
REMARK   10  A    between atoms: _29  and  _31
REMARK   11  A    between atoms: _31  and  _32
REMARK   12  A    between atoms: _31  and  _34
REMARK   13  A    between atoms: _34  and  _35
REMARK   14  A    between atoms: _38  and  _40
REMARK   15  A    between atoms: _40  and  _41
REMARK   16  A    between atoms: _40  and  _43
REMARK   17  A    between atoms: _43  and  _44
REMARK   18  A    between atoms: _47  and  _49
REMARK   19  A    between atoms: _49  and  _50
REMARK   20  A    between atoms: _49  and  _52
REMARK   21  A    between atoms: _52  and  _53
REMARK   22  A    between atoms: _63  and  _65
REMARK   23  A    between atoms: _65  and  _66
REMARK   24  A    between atoms: _65  and  _68
REMARK   25  A    between atoms: _68  and  _69
REMARK   26  A    between atoms: _69  and  _70
REMARK   27  A    between atoms: _70  and  _71
REMARK   28  A    between atoms: _71  and  _72
REMARK   29  A    between atoms: _76  and  _78
REMARK   30  A    between atoms: _78  and  _79
REMARK   31  A    between atoms: _78  and  _81
REMARK   32  A    between atoms: _81  and  _82
REMARK   33  A    between atoms: _88  and  _90
REMARK   34  A    between atoms: _90  and  _91
REMARK   35  A    between atoms: _90  and  _93
REMARK   36  A    between atoms: _93  and  _94
REMARK   37  A    between atoms: _96  and  _98
REMARK   38  A    between atoms: _98  and  _99
REMARK   39  A    between atoms: _98  and  _101
REMARK   40  A    between atoms: _101  and  _102
REMARK   41  A    between atoms: _102  and  _103
REMARK   42  A    between atoms: _106  and  _108
REMARK   43  A    between atoms: _108  and  _109
REMARK   44  A    between atoms: _108  and  _111
REMARK   45  A    between atoms: _111  and  _112
REMARK   46  A    between atoms: _115  and  _117
REMARK   47  A    between atoms: _117  and  _118
REMARK   48  A    between atoms: _121  and  _123
REMARK   49  A    between atoms: _123  and  _124
REMARK   50  A    between atoms: _123  and  _126
REMARK   51  A    between atoms: _126  and  _127
REMARK   52  A    between atoms: _130  and  _132
REMARK   53  A    between atoms: _132  and  _133
REMARK   54  A    between atoms: _132  and  _135
REMARK   55  A    between atoms: _135  and  _136
REMARK   56  A    between atoms: _136  and  _137
REMARK   57  A    between atoms: _137  and  _138
REMARK   58  A    between atoms: _138  and  _139
REMARK   59  A    between atoms: _143  and  _145
REMARK   60  A    between atoms: _145  and  _146
REMARK   61  A    between atoms: _145  and  _148
REMARK   62  A    between atoms: _150  and  _152
REMARK   63  A    between atoms: _152  and  _153
REMARK   64  A    between atoms: _152  and  _155
REMARK   65  A    between atoms: _155  and  _156
REMARK   66  A    between atoms: _159  and  _161
REMARK   67  A    between atoms: _161  and  _162
REMARK   68  A    between atoms: _161  and  _164
REMARK   69  A    between atoms: _164  and  _165
REMARK   70  A    between atoms: _165  and  _166
REMARK   71  A    between atoms: _166  and  _167
REMARK   72  A    between atoms: _167  and  _168
REMARK   73  A    between atoms: _172  and  _174
REMARK   74  A    between atoms: _174  and  _175
REMARK   75  A    between atoms: _174  and  _177
REMARK   76  A    between atoms: _177  and  _178
REMARK   77  A    between atoms: _181  and  _183
REMARK   78  A    between atoms: _183  and  _184
REMARK   79  A    between atoms: _183  and  _186
REMARK   80  A    between atoms: _188  and  _190
REMARK   81  A    between atoms: _190  and  _191
REMARK   82  A    between atoms: _190  and  _193
REMARK   83  A    between atoms: _193  and  _194
REMARK   84  A    between atoms: _197  and  _199
REMARK   85  A    between atoms: _199  and  _200
REMARK   86  A    between atoms: _199  and  _202
REMARK   87  A    between atoms: _202  and  _203
REMARK   88  A    between atoms: _206  and  _208
REMARK   89  A    between atoms: _208  and  _209
REMARK   90  A    between atoms: _208  and  _211
REMARK   91  A    between atoms: _211  and  _212
REMARK   92  A    between atoms: _215  and  _217
REMARK   93  A    between atoms: _217  and  _218
REMARK   94  A    between atoms: _217  and  _220
REMARK   95  A    between atoms: _220  and  _221
REMARK   96  A    between atoms: _224  and  _226
REMARK   97  A    between atoms: _226  and  _227
REMARK   98  A    between atoms: _226  and  _229
REMARK   99  A    between atoms: _229  and  _230
REMARK  100  A    between atoms: _230  and  _231
REMARK  101  A    between atoms: _233  and  _235
REMARK  102  A    between atoms: _235  and  _236
REMARK  103  A    between atoms: _235  and  _238
REMARK  104  A    between atoms: _238  and  _239
REMARK  105  A    between atoms: _242  and  _244
REMARK  106  A    between atoms: _244  and  _245
REMARK  107  A    between atoms: _244  and  _247
REMARK  108  A    between atoms: _247  and  _248
REMARK  109  A    between atoms: _248  and  _249
REMARK  110  A    between atoms: _249  and  _250
REMARK  111  A    between atoms: _259  and  _261
REMARK  112  A    between atoms: _261  and  _262
REMARK  113  A    between atoms: _261  and  _264
REMARK  114  A    between atoms: _264  and  _265
REMARK  115  A    between atoms: _268  and  _270
REMARK  116  A    between atoms: _270  and  _271
REMARK  117  A    between atoms: _270  and  _273
REMARK  118  A    between atoms: _275  and  _277
REMARK  119  A    between atoms: _277  and  _278
REMARK  120  A    between atoms: _277  and  _280
REMARK  121  A    between atoms: _280  and  _281
REMARK  122  A    between atoms: _284  and  _286
REMARK  123  A    between atoms: _286  and  _287
REMARK  124  A    between atoms: _286  and  _289
REMARK  125  A    between atoms: _289  and  _290
REMARK  126  A    between atoms: _290  and  _291
REMARK  127  A    between atoms: _291  and  _292
REMARK  128  A    between atoms: _301  and  _303
REMARK  129  A    between atoms: _303  and  _304
REMARK  130  A    between atoms: _303  and  _306
REMARK  131  A    between atoms: _306  and  _307
REMARK  132  A    between atoms: _307  and  _308
REMARK  133  A    between atoms: _310  and  _312
REMARK  134  A    between atoms: _312  and  _313
REMARK  135  A    between atoms: _312  and  _315
REMARK  136  A    between atoms: _315  and  _316
REMARK  137  A    between atoms: _319  and  _321
REMARK  138  A    between atoms: _321  and  _322
REMARK  139  A    between atoms: _321  and  _324
REMARK  140  A    between atoms: _324  and  _325
REMARK  141  A    between atoms: _331  and  _333
REMARK  142  A    between atoms: _333  and  _334
REMARK  143  A    between atoms: _333  and  _336
REMARK  144  A    between atoms: _336  and  _337
REMARK  145  A    between atoms: _339  and  _341
REMARK  146  A    between atoms: _341  and  _342
REMARK  147  A    between atoms: _341  and  _344
REMARK  148  A    between atoms: _344  and  _345
REMARK  149  A    between atoms: _348  and  _350
REMARK  150  A    between atoms: _350  and  _351
REMARK  151  A    between atoms: _353  and  _355
REMARK  152  A    between atoms: _355  and  _356
REMARK  153  A    between atoms: _355  and  _358
REMARK  154  A    between atoms: _358  and  _359
REMARK  155  A    between atoms: _362  and  _364
REMARK  156  A    between atoms: _364  and  _365
REMARK  157  A    between atoms: _364  and  _367
REMARK  158  A    between atoms: _367  and  _368
REMARK  159  A    between atoms: _368  and  _369
REMARK  160  A    between atoms: _371  and  _373
REMARK  161  A    between atoms: _373  and  _374
REMARK  162  A    between atoms: _373  and  _376
REMARK  163  A    between atoms: _376  and  _377
REMARK  164  A    between atoms: _382  and  _384
REMARK  165  A    between atoms: _384  and  _385
REMARK  166  A    between atoms: _388  and  _390
REMARK  167  A    between atoms: _390  and  _391
REMARK  168  A    between atoms: _393  and  _395
REMARK  169  A    between atoms: _395  and  _396
REMARK  170  A    between atoms: _395  and  _398
REMARK  171  A    between atoms: _398  and  _399
REMARK  172  A    between atoms: _405  and  _407
REMARK  173  A    between atoms: _407  and  _408
REMARK  174  A    between atoms: _410  and  _412
REMARK  175  A    between atoms: _412  and  _413
REMARK  176  A    between atoms: _412  and  _415
REMARK  177  A    between atoms: _415  and  _416
REMARK  178  A    between atoms: _419  and  _421
REMARK  179  A    between atoms: _421  and  _422
REMARK  180  A    between atoms: _421  and  _424
REMARK  181  A    between atoms: _424  and  _425
REMARK  182  A    between atoms: _428  and  _430
REMARK  183  A    between atoms: _430  and  _431
REMARK  184  A    between atoms: _430  and  _433
REMARK  185  A    between atoms: _436  and  _438
REMARK  186  A    between atoms: _438  and  _439
REMARK  187  A    between atoms: _438  and  _441
REMARK  188  A    between atoms: _441  and  _442
REMARK  189  A    between atoms: _445  and  _447
REMARK  190  A    between atoms: _447  and  _448
REMARK  191  A    between atoms: _447  and  _450
REMARK  192  A    between atoms: _450  and  _451
REMARK  193  A    between atoms: _453  and  _455
REMARK  194  A    between atoms: _455  and  _456
REMARK  195  A    between atoms: _455  and  _458
REMARK  196  A    between atoms: _458  and  _459
REMARK  197  A    between atoms: _459  and  _460
REMARK  198  A    between atoms: _460  and  _461
REMARK  199  A    between atoms: _461  and  _462
REMARK  200  A    between atoms: _466  and  _468
REMARK  201  A    between atoms: _468  and  _469
REMARK  202  A    between atoms: _471  and  _473
REMARK  203  A    between atoms: _473  and  _474
REMARK  204  A    between atoms: _477  and  _479
REMARK  205  A    between atoms: _479  and  _480
REMARK  206  A    between atoms: _479  and  _482
REMARK  207  A    between atoms: _483  and  _484
REMARK  208  A    between atoms: _487  and  _489
REMARK  209  A    between atoms: _489  and  _490
REMARK  210  A    between atoms: _489  and  _492
REMARK  211  A    between atoms: _492  and  _493
REMARK  212  A    between atoms: _493  and  _494
REMARK  213  A    between atoms: _494  and  _495
REMARK  214  A    between atoms: _504  and  _506
REMARK  215  A    between atoms: _506  and  _507
REMARK  216  A    between atoms: _510  and  _512
REMARK  217  A    between atoms: _512  and  _513
REMARK  218  A    between atoms: _512  and  _515
REMARK  219  A    between atoms: _515  and  _516
REMARK  220  A    between atoms: _519  and  _521
REMARK  221  A    between atoms: _521  and  _522
REMARK  222  A    between atoms: _521  and  _524
REMARK  223  A    between atoms: _524  and  _525
REMARK  224  A    between atoms: _528  and  _530
REMARK  225  A    between atoms: _530  and  _531
REMARK  226  A    between atoms: _530  and  _533
REMARK  227  A    between atoms: _533  and  _534
REMARK  228  A    between atoms: _537  and  _539
REMARK  229  A    between atoms: _539  and  _540
REMARK  230  A    between atoms: _539  and  _542
REMARK  231  A    between atoms: _542  and  _543
REMARK  232  A    between atoms: _543  and  _544
REMARK  233  A    between atoms: _544  and  _545
REMARK  234  A    between atoms: _545  and  _546
REMARK  235  A    between atoms: _550  and  _552
REMARK  236  A    between atoms: _552  and  _553
REMARK  237  A    between atoms: _552  and  _555
REMARK  238  A    between atoms: _555  and  _556
REMARK  239  A    between atoms: _559  and  _561
REMARK  240  A    between atoms: _561  and  _562
REMARK  241  A    between atoms: _561  and  _564
REMARK  242  A    between atoms: _564  and  _565
REMARK  243  A    between atoms: _565  and  _566
REMARK  244  A    between atoms: _569  and  _570
REMARK  245  A    between atoms: _575  and  _577
REMARK  246  A    between atoms: _577  and  _578
REMARK  247  A    between atoms: _577  and  _580
REMARK  248  A    between atoms: _580  and  _581
REMARK  249  A    between atoms: _584  and  _586
REMARK  250  A    between atoms: _586  and  _587
REMARK  251  A    between atoms: _586  and  _589
REMARK  252  A    between atoms: _589  and  _590
REMARK  253  A    between atoms: _593  and  _595
REMARK  254  A    between atoms: _595  and  _596
REMARK  255  A    between atoms: _595  and  _598
REMARK  256  A    between atoms: _598  and  _599
REMARK  257  A    between atoms: _599  and  _600
REMARK  258  A    between atoms: _600  and  _601
REMARK  259  A    between atoms: _610  and  _612
REMARK  260  A    between atoms: _612  and  _613
REMARK  261  A    between atoms: _612  and  _615
REMARK  262  A    between atoms: _615  and  _616
REMARK  263  A    between atoms: _616  and  _617
REMARK  264  A    between atoms: _619  and  _621
REMARK  265  A    between atoms: _621  and  _622
REMARK  266  A    between atoms: _621  and  _624
REMARK  267  A    between atoms: _624  and  _625
REMARK                            x       y       z     vdW  Elec       q    Type
REMARK                         _______ _______ _______ _____ _____    ______ ____
ROOT
ATOM      1  C   MET A   1      35.613  13.307  75.833  0.00  0.00    +0.238 C 
ATOM      2  O   MET A   1      36.722  13.744  76.150  0.00  0.00    -0.274 OA
ATOM      3  N   HIS A   2      35.416  12.525  74.785  0.00  0.00    -0.298 N 
ATOM      4  H   HIS A   2      34.467  12.140  74.603  0.00  0.00    +0.150 HD
ENDROOT
BRANCH   1   5
ATOM      5  CA  MET A   1      34.395  13.692  76.663  0.00  0.00    +0.146 C 
BRANCH   5   6
ATOM      6  N   MET A   1      33.296  14.050  75.787  0.00  0.00    -0.238 NA
ATOM      7  H   MET A   1      32.396  13.533  75.844  0.00  0.00    +0.142 HD
ENDBRANCH   5   6
BRANCH   5   8
ATOM      8  CB  MET A   1      33.995  12.535  77.573  0.00  0.00    +0.038 C 
BRANCH   8   9
ATOM      9  CG  MET A   1      32.947  12.905  78.591  0.00  0.00    +0.060 C 
BRANCH   9  10
ATOM     10  SD  MET A   1      33.429  14.079  79.869  0.00  0.00    -0.139 S 
ATOM     11  CE  MET A   1      34.296  12.876  80.904  0.00  0.00    +0.069 C 
ENDBRANCH   9  10
ENDBRANCH   8   9
ENDBRANCH   5   8
ENDBRANCH   1   5
BRANCH   3  12
ATOM     12  CA  HIS A   2      36.511  12.196  73.881  0.00  0.00    +0.143 C 
BRANCH  12  13
ATOM     13  C   HIS A   2      37.193  13.455  73.362  0.00  0.00    +0.227 C 
ATOM     14  O   HIS A   2      38.426  13.638  73.414  0.00  0.00    -0.286 OA
ENDBRANCH  12  13
BRANCH  12  15
ATOM     15  CB  HIS A   2      36.002  11.406  72.698  0.00  0.00    +0.075 C 
BRANCH  15  16
ATOM     16  CG  HIS A   2      37.030  11.090  71.668  0.00  0.00    +0.082 A 
ATOM     17  CD2 HIS A   2      37.724   9.948  71.459  0.00  0.00    +0.115 A 
ATOM     18  NE2 HIS A   2      38.563  10.111  70.385  0.00  0.00    -0.221 NA
ATOM     19  CE1 HIS A   2      38.384  11.346  69.963  0.00  0.00    +0.199 A 
ATOM     20  ND1 HIS A   2      37.483  11.969  70.718  0.00  0.00    -0.227 NA
ENDBRANCH  15  16
ENDBRANCH  12  15
ENDBRANCH   3  12
TORSDOF 9
REMARK  Name = ../refined-set-2016/1fd0/1fd0_pocket.pdb
REMARK  267 active torsions:
REMARK  status: ('A' for Active; 'I' for Inactive)
REMARK    1  A    between atoms: _1  and  _3
REMARK    2  A    between atoms: _3  and  _4
REMARK    3  A    between atoms: _3  and  _6
REMARK    4  A    between atoms: _6  and  _7
REMARK    5  A    between atoms: _10  and  _12
REMARK    6  A    between atoms: _12  and  _13
REMARK    7  A    between atoms: _12  and  _15
REMARK    8  A    between atoms: _15  and  _16
REMARK    9  A    between atoms: _23  and  _24
REMARK   10  A    between atoms: _29  and  _31
REMARK   11  A    between atoms: _31  and  _32
REMARK   12  A    between atoms: _31  and  _34
REMARK   13  A    between atoms: _34  and  _35
REMARK   14  A    between atoms: _38  and  _40
REMARK   15  A    between atoms: _40  and  _41
REMARK   16  A    between atoms: _40  and  _43
REMARK   17  A    between atoms: _43  and  _44
REMARK   18  A    between atoms: _47  and  _49
REMARK   19  A    between atoms: _49  and  _50
REMARK   20  A    between atoms: _49  and  _52
REMARK   21  A    between atoms: _52  and  _53
REMARK   22  A    between atoms: _63  and  _65
REMARK   23  A    between atoms: _65  and  _66
REMARK   24  A    between atoms: _65  and  _68
REMARK   25  A    between atoms: _68  and  _69
REMARK   26  A    between atoms: _69  and  _70
REMARK   27  A    between atoms: _70  and  _71
REMARK   28  A    between atoms: _71  and  _72
REMARK   29  A    between atoms: _76  and  _78
REMARK   30  A    between atoms: _78  and  _79
REMARK   31  A    between atoms: _78  and  _81
REMARK   32  A    between atoms: _81  and  _82
REMARK   33  A    between atoms: _88  and  _90
REMARK   34  A    between atoms: _90  and  _91
REMARK   35  A    between atoms: _90  and  _93
REMARK   36  A    between atoms: _93  and  _94
REMARK   37  A    between atoms: _96  and  _98
REMARK   38  A    between atoms: _98  and  _99
REMARK   39  A    between atoms: _98  and  _101
REMARK   40  A    between atoms: _101  and  _102
REMARK   41  A    between atoms: _102  and  _103
REMARK   42  A    between atoms: _106  and  _108
REMARK   43  A    between atoms: _108  and  _109
REMARK   44  A    between atoms: _108  and  _111
REMARK   45  A    between atoms: _111  and  _112
REMARK   46  A    between atoms: _115  and  _117
REMARK   47  A    between atoms: _117  and  _118
REMARK   48  A    between atoms: _121  and  _123
REMARK   49  A    between atoms: _123  and  _124
REMARK   50  A    between atoms: _123  and  _126
REMARK   51  A    between atoms: _126  and  _127
REMARK   52  A    between atoms: _130  and  _132
REMARK   53  A    between atoms: _132  and  _133
REMARK   54  A    between atoms: _132  and  _135
REMARK   55  A    between atoms: _135  and  _136
REMARK   56  A    between atoms: _136  and  _137
REMARK   57  A    between atoms: _137  and  _138
REMARK   58  A    between atoms: _138  and  _139
REMARK   59  A    between atoms: _143  and  _145
REMARK   60  A    between atoms: _145  and  _146
REMARK   61  A    between atoms: _145  and  _148
REMARK   62  A    between atoms: _150  and  _152
REMARK   63  A    between atoms: _152  and  _153
REMARK   64  A    between atoms: _152  and  _155
REMARK   65  A    between atoms: _155  and  _156
REMARK   66  A    between atoms: _159  and  _161
REMARK   67  A    between atoms: _161  and  _162
REMARK   68  A    between atoms: _161  and  _164
REMARK   69  A    between atoms: _164  and  _165
REMARK   70  A    between atoms: _165  and  _166
REMARK   71  A    between atoms: _166  and  _167
REMARK   72  A    between atoms: _167  and  _168
REMARK   73  A    between atoms: _172  and  _174
REMARK   74  A    between atoms: _174  and  _175
REMARK   75  A    between atoms: _174  and  _177
REMARK   76  A    between atoms: _177  and  _178
REMARK   77  A    between atoms: _181  and  _183
REMARK   78  A    between atoms: _183  and  _184
REMARK   79  A    between atoms: _183  and  _186
REMARK   80  A    between atoms: _188  and  _190
REMARK   81  A    between atoms: _190  and  _191
REMARK   82  A    between atoms: _190  and  _193
REMARK   83  A    between atoms: _193  and  _194
REMARK   84  A    between atoms: _197  and  _199
REMARK   85  A    between atoms: _199  and  _200
REMARK   86  A    between atoms: _199  and  _202
REMARK   87  A    between atoms: _202  and  _203
REMARK   88  A    between atoms: _206  and  _208
REMARK   89  A    between atoms: _208  and  _209
REMARK   90  A    between atoms: _208  and  _211
REMARK   91  A    between atoms: _211  and  _212
REMARK   92  A    between atoms: _215  and  _217
REMARK   93  A    between atoms: _217  and  _218
REMARK   94  A    between atoms: _217  and  _220
REMARK   95  A    between atoms: _220  and  _221
REMARK   96  A    between atoms: _224  and  _226
REMARK   97  A    between atoms: _226  and  _227
REMARK   98  A    between atoms: _226  and  _229
REMARK   99  A    between atoms: _229  and  _230
REMARK  100  A    between atoms: _230  and  _231
REMARK  101  A    between atoms: _233  and  _235
REMARK  102  A    between atoms: _235  and  _236
REMARK  103  A    between atoms: _235  and  _238
REMARK  104  A    between atoms: _238  and  _239
REMARK  105  A    between atoms: _242  and  _244
REMARK  106  A    between atoms: _244  and  _245
REMARK  107  A    between atoms: _244  and  _247
REMARK  108  A    between atoms: _247  and  _248
REMARK  109  A    between atoms: _248  and  _249
REMARK  110  A    between atoms: _249  and  _250
REMARK  111  A    between atoms: _259  and  _261
REMARK  112  A    between atoms: _261  and  _262
REMARK  113  A    between atoms: _261  and  _264
REMARK  114  A    between atoms: _264  and  _265
REMARK  115  A    between atoms: _268  and  _270
REMARK  116  A    between atoms: _270  and  _271
REMARK  117  A    between atoms: _270  and  _273
REMARK  118  A    between atoms: _275  and  _277
REMARK  119  A    between atoms: _277  and  _278
REMARK  120  A    between atoms: _277  and  _280
REMARK  121  A    between atoms: _280  and  _281
REMARK  122  A    between atoms: _284  and  _286
REMARK  123  A    between atoms: _286  and  _287
REMARK  124  A    between atoms: _286  and  _289
REMARK  125  A    between atoms: _289  and  _290
REMARK  126  A    between atoms: _290  and  _291
REMARK  127  A    between atoms: _291  and  _292
REMARK  128  A    between atoms: _301  and  _303
REMARK  129  A    between atoms: _303  and  _304
REMARK  130  A    between atoms: _303  and  _306
REMARK  131  A    between atoms: _306  and  _307
REMARK  132  A    between atoms: _307  and  _308
REMARK  133  A    between atoms: _310  and  _312
REMARK  134  A    between atoms: _312  and  _313
REMARK  135  A    between atoms: _312  and  _315
REMARK  136  A    between atoms: _315  and  _316
REMARK  137  A    between atoms: _319  and  _321
REMARK  138  A    between atoms: _321  and  _322
REMARK  139  A    between atoms: _321  and  _324
REMARK  140  A    between atoms: _324  and  _325
REMARK  141  A    between atoms: _331  and  _333
REMARK  142  A    between atoms: _333  and  _334
REMARK  143  A    between atoms: _333  and  _336
REMARK  144  A    between atoms: _336  and  _337
REMARK  145  A    between atoms: _339  and  _341
REMARK  146  A    between atoms: _341  and  _342
REMARK  147  A    between atoms: _341  and  _344
REMARK  148  A    between atoms: _344  and  _345
REMARK  149  A    between atoms: _348  and  _350
REMARK  150  A    between atoms: _350  and  _351
REMARK  151  A    between atoms: _353  and  _355
REMARK  152  A    between atoms: _355  and  _356
REMARK  153  A    between atoms: _355  and  _358
REMARK  154  A    between atoms: _358  and  _359
REMARK  155  A    between atoms: _362  and  _364
REMARK  156  A    between atoms: _364  and  _365
REMARK  157  A    between atoms: _364  and  _367
REMARK  158  A    between atoms: _367  and  _368
REMARK  159  A    between atoms: _368  and  _369
REMARK  160  A    between atoms: _371  and  _373
REMARK  161  A    between atoms: _373  and  _374
REMARK  162  A    between atoms: _373  and  _376
REMARK  163  A    between atoms: _376  and  _377
REMARK  164  A    between atoms: _382  and  _384
REMARK  165  A    between atoms: _384  and  _385
REMARK  166  A    between atoms: _388  and  _390
REMARK  167  A    between atoms: _390  and  _391
REMARK  168  A    between atoms: _393  and  _395
REMARK  169  A    between atoms: _395  and  _396
REMARK  170  A    between atoms: _395  and  _398
REMARK  171  A    between atoms: _398  and  _399
REMARK  172  A    between atoms: _405  and  _407
REMARK  173  A    between atoms: _407  and  _408
REMARK  174  A    between atoms: _410  and  _412
REMARK  175  A    between atoms: _412  and  _413
REMARK  176  A    between atoms: _412  and  _415
REMARK  177  A    between atoms: _415  and  _416
REMARK  178  A    between atoms: _419  and  _421
REMARK  179  A    between atoms: _421  and  _422
REMARK  180  A    between atoms: _421  and  _424
REMARK  181  A    between atoms: _424  and  _425
REMARK  182  A    between atoms: _428  and  _430
REMARK  183  A    between atoms: _430  and  _431
REMARK  184  A    between atoms: _430  and  _433
REMARK  185  A    between atoms: _436  and  _438
REMARK  186  A    between atoms: _438  and  _439
REMARK  187  A    between atoms: _438  and  _441
REMARK  188  A    between atoms: _441  and  _442
REMARK  189  A    between atoms: _445  and  _447
REMARK  190  A    between atoms: _447  and  _448
REMARK  191  A    between atoms: _447  and  _450
REMARK  192  A    between atoms: _450  and  _451
REMARK  193  A    between atoms: _453  and  _455
REMARK  194  A    between atoms: _455  and  _456
REMARK  195  A    between atoms: _455  and  _458
REMARK  196  A    between atoms: _458  and  _459
REMARK  197  A    between atoms: _459  and  _460
REMARK  198  A    between atoms: _460  and  _461
REMARK  199  A    between atoms: _461  and  _462
REMARK  200  A    between atoms: _466  and  _468
REMARK  201  A    between atoms: _468  and  _469
REMARK  202  A    between atoms: _471  and  _473
REMARK  203  A    between atoms: _473  and  _474
REMARK  204  A    between atoms: _477  and  _479
REMARK  205  A    between atoms: _479  and  _480
REMARK  206  A    between atoms: _479  and  _482
REMARK  207  A    between atoms: _483  and  _484
REMARK  208  A    between atoms: _487  and  _489
REMARK  209  A    between atoms: _489  and  _490
REMARK  210  A    between atoms: _489  and  _492
REMARK  211  A    between atoms: _492  and  _493
REMARK  212  A    between atoms: _493  and  _494
REMARK  213  A    between atoms: _494  and  _495
REMARK  214  A    between atoms: _504  and  _506
REMARK  215  A    between atoms: _506  and  _507
REMARK  216  A    between atoms: _510  and  _512
REMARK  217  A    between atoms: _512  and  _513
REMARK  218  A    between atoms: _512  and  _515
REMARK  219  A    between atoms: _515  and  _516
REMARK  220  A    between atoms: _519  and  _521
REMARK  221  A    between atoms: _521  and  _522
REMARK  222  A    between atoms: _521  and  _524
REMARK  223  A    between atoms: _524  and  _525
REMARK  224  A    between atoms: _528  and  _530
REMARK  225  A    between atoms: _530  and  _531
REMARK  226  A    between atoms: _530  and  _533
REMARK  227  A    between atoms: _533  and  _534
REMARK  228  A    between atoms: _537  and  _539
REMARK  229  A    between atoms: _539  and  _540
REMARK  230  A    between atoms: _539  and  _542
REMARK  231  A    between atoms: _542  and  _543
REMARK  232  A    between atoms: _543  and  _544
REMARK  233  A    between atoms: _544  and  _545
REMARK  234  A    between atoms: _545  and  _546
REMARK  235  A    between atoms: _550  and  _552
REMARK  236  A    between atoms: _552  and  _553
REMARK  237  A    between atoms: _552  and  _555
REMARK  238  A    between atoms: _555  and  _556
REMARK  239  A    between atoms: _559  and  _561
REMARK  240  A    between atoms: _561  and  _562
REMARK  241  A    between atoms: _561  and  _564
REMARK  242  A    between atoms: _564  and  _565
REMARK  243  A    between atoms: _565  and  _566
REMARK  244  A    between atoms: _569  and  _570
REMARK  245  A    between atoms: _575  and  _577
REMARK  246  A    between atoms: _577  and  _578
REMARK  247  A    between atoms: _577  and  _580
REMARK  248  A    between atoms: _580  and  _581
REMARK  249  A    between atoms: _584  and  _586
REMARK  250  A    between atoms: _586  and  _587
REMARK  251  A    between atoms: _586  and  _589
REMARK  252  A    between atoms: _589  and  _590
REMARK  253  A    between atoms: _593  and  _595
REMARK  254  A    between atoms: _595  and  _596
REMARK  255  A    between atoms: _595  and  _598
REMARK  256  A    between atoms: _598  and  _599
REMARK  257  A    between atoms: _599  and  _600
REMARK  258  A    between atoms: _600  and  _601
REMARK  259  A    between atoms: _610  and  _612
REMARK  260  A    between atoms: _612  and  _613
REMARK  261  A    between atoms: _612  and  _615
REMARK  262  A    between atoms: _615  and  _616
REMARK  263  A    between atoms: _616  and  _617
REMARK  264  A    between atoms: _619  and  _621
REMARK  265  A    between atoms: _621  and  _622
REMARK  266  A    between atoms: _621  and  _624
REMARK  267  A    between atoms: _624  and  _625
REMARK                            x       y       z     vdW  Elec       q    Type
REMARK                         _______ _______ _______ _____ _____    ______ ____
ROOT
ATOM      1  CA  PHE A   3      40.211  11.878  76.809  0.00  0.00    +0.153 C 
ENDROOT
BRANCH   1   3
ATOM      2  C   GLY A   2      41.074  14.035  76.150  0.00  0.00    +0.243 C 
ATOM      3  N   PHE A   3      40.002  13.280  76.488  0.00  0.00    -0.297 N 
ATOM      4  H   PHE A   3      39.049  13.695  76.517  0.00  0.00    +0.150 HD
ATOM      5  O   GLY A   2      42.195  13.520  76.059  0.00  0.00    -0.273 OA
BRANCH   2   6
ATOM      6  CA  GLY A   2      40.846  15.484  75.857  0.00  0.00    +0.176 C 
BRANCH   6   9
ATOM      7  C   ALA A   1      39.066  17.102  75.834  0.00  0.00    +0.238 C 
ATOM      8  O   ALA A   1      39.717  17.957  76.468  0.00  0.00    -0.274 OA
ATOM      9  N   GLY A   2      39.502  15.885  75.524  0.00  0.00    -0.296 N 
ATOM     10  H   GLY A   2      38.869  15.218  75.038  0.00  0.00    +0.150 HD
BRANCH   7  11
ATOM     11  CA  ALA A   1      37.630  17.435  75.407  0.00  0.00    +0.145 C 
ATOM     12  CB  ALA A   1      36.760  17.423  76.645  0.00  0.00    +0.028 C 
BRANCH  11  13
ATOM     13  N   ALA A   1      37.072  16.534  74.404  0.00  0.00    -0.238 NA
ATOM     14  H   ALA A   1      36.413  15.789  74.708  0.00  0.00    +0.142 HD
ENDBRANCH  11  13
ENDBRANCH   7  11
ENDBRANCH   6   9
ENDBRANCH   2   6
ENDBRANCH   1   3
BRANCH   1  15
ATOM     15  C   PHE A   3      40.699  11.111  75.593  0.00  0.00    +0.241 C 
ATOM     16  O   PHE A   3      41.504  10.191  75.780  0.00  0.00    -0.273 OA
ATOM     17  N   GLY A   4      40.227  11.487  74.384  0.00  0.00    -0.296 N 
ATOM     18  H   GLY A   4      39.533  12.257  74.305  0.00  0.00    +0.150 HD
BRANCH  17  19
ATOM     19  CA  GLY A   4      40.702  10.801  73.197  0.00  0.00    +0.163 C 
BRANCH  19  20
ATOM     20  C   GLY A   4      40.603   9.301  73.299  0.00  0.00    +0.229 C 
ATOM     21  O   GLY A   4      39.565   8.819  73.732  0.00  0.00    -0.286 OA
ENDBRANCH  19  20
ENDBRANCH  17  19
ENDBRANCH   1  15
BRANCH   1  22
ATOM     22  CB  PHE A   3      38.916  11.239  77.324  0.00  0.00    +0.055 C 
BRANCH  22  23
ATOM     23  CG  PHE A   3      38.687  11.574  78.806  0.00  0.00    -0.020 A 
ATOM     24  CD2 PHE A   3      39.294  10.820  79.802  0.00  0.00    -0.004 A 
ATOM     25  CE2 PHE A   3      39.074  11.170  81.108  0.00  0.00    -0.000 A 
ATOM     26  CZ  PHE A   3      38.267  12.215  81.450  0.00  0.00    -0.000 A 
ATOM     27  CE1 PHE A   3      37.707  12.995  80.493  0.00  0.00    -0.000 A 
ATOM     28  CD1 PHE A   3      37.891  12.659  79.170  0.00  0.00    -0.004 A 
ENDBRANCH  22  23
ENDBRANCH   1  22
TORSDOF 10
REMARK  Name = ../refined-set-2016/1fd0/1fd0_pocket.pdb
REMARK  267 active torsions:
REMARK  status: ('A' for Active; 'I' for Inactive)
REMARK    1  A    between atoms: _1  and  _3
REMARK    2  A    between atoms: _3  and  _4
REMARK    3  A    between atoms: _3  and  _6
REMARK    4  A    between atoms: _6  and  _7
REMARK    5  A    between atoms: _10  and  _12
REMARK    6  A    between atoms: _12  and  _13
REMARK    7  A    between atoms: _12  and  _15
REMARK    8  A    between atoms: _15  and  _16
REMARK    9  A    between atoms: _23  and  _24
REMARK   10  A    between atoms: _29  and  _31
REMARK   11  A    between atoms: _31  and  _32
REMARK   12  A    between atoms: _31  and  _34
REMARK   13  A    between atoms: _34  and  _35
REMARK   14  A    between atoms: _38  and  _40
REMARK   15  A    between atoms: _40  and  _41
REMARK   16  A    between atoms: _40  and  _43
REMARK   17  A    between atoms: _43  and  _44
REMARK   18  A    between atoms: _47  and  _49
REMARK   19  A    between atoms: _49  and  _50
REMARK   20  A    between atoms: _49  and  _52
REMARK   21  A    between atoms: _52  and  _53
REMARK   22  A    between atoms: _63  and  _65
REMARK   23  A    between atoms: _65  and  _66
REMARK   24  A    between atoms: _65  and  _68
REMARK   25  A    between atoms: _68  and  _69
REMARK   26  A    between atoms: _69  and  _70
REMARK   27  A    between atoms: _70  and  _71
REMARK   28  A    between atoms: _71  and  _72
REMARK   29  A    between atoms: _76  and  _78
REMARK   30  A    between atoms: _78  and  _79
REMARK   31  A    between atoms: _78  and  _81
REMARK   32  A    between atoms: _81  and  _82
REMARK   33  A    between atoms: _88  and  _90
REMARK   34  A    between atoms: _90  and  _91
REMARK   35  A    between atoms: _90  and  _93
REMARK   36  A    between atoms: _93  and  _94
REMARK   37  A    between atoms: _96  and  _98
REMARK   38  A    between atoms: _98  and  _99
REMARK   39  A    between atoms: _98  and  _101
REMARK   40  A    between atoms: _101  and  _102
REMARK   41  A    between atoms: _102  and  _103
REMARK   42  A    between atoms: _106  and  _108
REMARK   43  A    between atoms: _108  and  _109
REMARK   44  A    between atoms: _108  and  _111
REMARK   45  A    between atoms: _111  and  _112
REMARK   46  A    between atoms: _115  and  _117
REMARK   47  A    between atoms: _117  and  _118
REMARK   48  A    between atoms: _121  and  _123
REMARK   49  A    between atoms: _123  and  _124
REMARK   50  A    between atoms: _123  and  _126
REMARK   51  A    between atoms: _126  and  _127
REMARK   52  A    between atoms: _130  and  _132
REMARK   53  A    between atoms: _132  and  _133
REMARK   54  A    between atoms: _132  and  _135
REMARK   55  A    between atoms: _135  and  _136
REMARK   56  A    between atoms: _136  and  _137
REMARK   57  A    between atoms: _137  and  _138
REMARK   58  A    between atoms: _138  and  _139
REMARK   59  A    between atoms: _143  and  _145
REMARK   60  A    between atoms: _145  and  _146
REMARK   61  A    between atoms: _145  and  _148
REMARK   62  A    between atoms: _150  and  _152
REMARK   63  A    between atoms: _152  and  _153
REMARK   64  A    between atoms: _152  and  _155
REMARK   65  A    between atoms: _155  and  _156
REMARK   66  A    between atoms: _159  and  _161
REMARK   67  A    between atoms: _161  and  _162
REMARK   68  A    between atoms: _161  and  _164
REMARK   69  A    between atoms: _164  and  _165
REMARK   70  A    between atoms: _165  and  _166
REMARK   71  A    between atoms: _166  and  _167
REMARK   72  A    between atoms: _167  and  _168
REMARK   73  A    between atoms: _172  and  _174
REMARK   74  A    between atoms: _174  and  _175
REMARK   75  A    between atoms: _174  and  _177
REMARK   76  A    between atoms: _177  and  _178
REMARK   77  A    between atoms: _181  and  _183
REMARK   78  A    between atoms: _183  and  _184
REMARK   79  A    between atoms: _183  and  _186
REMARK   80  A    between atoms: _188  and  _190
REMARK   81  A    between atoms: _190  and  _191
REMARK   82  A    between atoms: _190  and  _193
REMARK   83  A    between atoms: _193  and  _194
REMARK   84  A    between atoms: _197  and  _199
REMARK   85  A    between atoms: _199  and  _200
REMARK   86  A    between atoms: _199  and  _202
REMARK   87  A    between atoms: _202  and  _203
REMARK   88  A    between atoms: _206  and  _208
REMARK   89  A    between atoms: _208  and  _209
REMARK   90  A    between atoms: _208  and  _211
REMARK   91  A    between atoms: _211  and  _212
REMARK   92  A    between atoms: _215  and  _217
REMARK   93  A    between atoms: _217  and  _218
REMARK   94  A    between atoms: _217  and  _220
REMARK   95  A    between atoms: _220  and  _221
REMARK   96  A    between atoms: _224  and  _226
REMARK   97  A    between atoms: _226  and  _227
REMARK   98  A    between atoms: _226  and  _229
REMARK   99  A    between atoms: _229  and  _230
REMARK  100  A    between atoms: _230  and  _231
REMARK  101  A    between atoms: _233  and  _235
REMARK  102  A    between atoms: _235  and  _236
REMARK  103  A    between atoms: _235  and  _238
REMARK  104  A    between atoms: _238  and  _239
REMARK  105  A    between atoms: _242  and  _244
REMARK  106  A    between atoms: _244  and  _245
REMARK  107  A    between atoms: _244  and  _247
REMARK  108  A    between atoms: _247  and  _248
REMARK  109  A    between atoms: _248  and  _249
REMARK  110  A    between atoms: _249  and  _250
REMARK  111  A    between atoms: _259  and  _261
REMARK  112  A    between atoms: _261  and  _262
REMARK  113  A    between atoms: _261  and  _264
REMARK  114  A    between atoms: _264  and  _265
REMARK  115  A    between atoms: _268  and  _270
REMARK  116  A    between atoms: _270  and  _271
REMARK  117  A    between atoms: _270  and  _273
REMARK  118  A    between atoms: _275  and  _277
REMARK  119  A    between atoms: _277  and  _278
REMARK  120  A    between atoms: _277  and  _280
REMARK  121  A    between atoms: _280  and  _281
REMARK  122  A    between atoms: _284  and  _286
REMARK  123  A    between atoms: _286  and  _287
REMARK  124  A    between atoms: _286  and  _289
REMARK  125  A    between atoms: _289  and  _290
REMARK  126  A    between atoms: _290  and  _291
REMARK  127  A    between atoms: _291  and  _292
REMARK  128  A    between atoms: _301  and  _303
REMARK  129  A    between atoms: _303  and  _304
REMARK  130  A    between atoms: _303  and  _306
REMARK  131  A    between atoms: _306  and  _307
REMARK  132  A    between atoms: _307  and  _308
REMARK  133  A    between atoms: _310  and  _312
REMARK  134  A    between atoms: _312  and  _313
REMARK  135  A    between atoms: _312  and  _315
REMARK  136  A    between atoms: _315  and  _316
REMARK  137  A    between atoms: _319  and  _321
REMARK  138  A    between atoms: _321  and  _322
REMARK  139  A    between atoms: _321  and  _324
REMARK  140  A    between atoms: _324  and  _325
REMARK  141  A    between atoms: _331  and  _333
REMARK  142  A    between atoms: _333  and  _334
REMARK  143  A    between atoms: _333  and  _336
REMARK  144  A    between atoms: _336  and  _337
REMARK  145  A    between atoms: _339  and  _341
REMARK  146  A    between atoms: _341  and  _342
REMARK  147  A    between atoms: _341  and  _344
REMARK  148  A    between atoms: _344  and  _345
REMARK  149  A    between atoms: _348  and  _350
REMARK  150  A    between atoms: _350  and  _351
REMARK  151  A    between atoms: _353  and  _355
REMARK  152  A    between atoms: _355  and  _356
REMARK  153  A    between atoms: _355  and  _358
REMARK  154  A    between atoms: _358  and  _359
REMARK  155  A    between atoms: _362  and  _364
REMARK  156  A    between atoms: _364  and  _365
REMARK  157  A    between atoms: _364  and  _367
REMARK  158  A    between atoms: _367  and  _368
REMARK  159  A    between atoms: _368  and  _369
REMARK  160  A    between atoms: _371  and  _373
REMARK  161  A    between atoms: _373  and  _374
REMARK  162  A    between atoms: _373  and  _376
REMARK  163  A    between atoms: _376  and  _377
REMARK  164  A    between atoms: _382  and  _384
REMARK  165  A    between atoms: _384  and  _385
REMARK  166  A    between atoms: _388  and  _390
REMARK  167  A    between atoms: _390  and  _391
REMARK  168  A    between atoms: _393  and  _395
REMARK  169  A    between atoms: _395  and  _396
REMARK  170  A    between atoms: _395  and  _398
REMARK  171  A    between atoms: _398  and  _399
REMARK  172  A    between atoms: _405  and  _407
REMARK  173  A    between atoms: _407  and  _408
REMARK  174  A    between atoms: _410  and  _412
REMARK  175  A    between atoms: _412  and  _413
REMARK  176  A    between atoms: _412  and  _415
REMARK  177  A    between atoms: _415  and  _416
REMARK  178  A    between atoms: _419  and  _421
REMARK  179  A    between atoms: _421  and  _422
REMARK  180  A    between atoms: _421  and  _424
REMARK  181  A    between atoms: _424  and  _425
REMARK  182  A    between atoms: _428  and  _430
REMARK  183  A    between atoms: _430  and  _431
REMARK  184  A    between atoms: _430  and  _433
REMARK  185  A    between atoms: _436  and  _438
REMARK  186  A    between atoms: _438  and  _439
REMARK  187  A    between atoms: _438  and  _441
REMARK  188  A    between atoms: _441  and  _442
REMARK  189  A    between atoms: _445  and  _447
REMARK  190  A    between atoms: _447  and  _448
REMARK  191  A    between atoms: _447  and  _450
REMARK  192  A    between atoms: _450  and  _451
REMARK  193  A    between atoms: _453  and  _455
REMARK  194  A    between atoms: _455  and  _456
REMARK  195  A    between atoms: _455  and  _458
REMARK  196  A    between atoms: _458  and  _459
REMARK  197  A    between atoms: _459  and  _460
REMARK  198  A    between atoms: _460  and  _461
REMARK  199  A    between atoms: _461  and  _462
REMARK  200  A    between atoms: _466  and  _468
REMARK  201  A    between atoms: _468  and  _469
REMARK  202  A    between atoms: _471  and  _473
REMARK  203  A    between atoms: _473  and  _474
REMARK  204  A    between atoms: _477  and  _479
REMARK  205  A    between atoms: _479  and  _480
REMARK  206  A    between atoms: _479  and  _482
REMARK  207  A    between atoms: _483  and  _484
REMARK  208  A    between atoms: _487  and  _489
REMARK  209  A    between atoms: _489  and  _490
REMARK  210  A    between atoms: _489  and  _492
REMARK  211  A    between atoms: _492  and  _493
REMARK  212  A    between atoms: _493  and  _494
REMARK  213  A    between atoms: _494  and  _495
REMARK  214  A    between atoms: _504  and  _506
REMARK  215  A    between atoms: _506  and  _507
REMARK  216  A    between atoms: _510  and  _512
REMARK  217  A    between atoms: _512  and  _513
REMARK  218  A    between atoms: _512  and  _515
REMARK  219  A    between atoms: _515  and  _516
REMARK  220  A    between atoms: _519  and  _521
REMARK  221  A    between atoms: _521  and  _522
REMARK  222  A    between atoms: _521  and  _524
REMARK  223  A    between atoms: _524  and  _525
REMARK  224  A    between atoms: _528  and  _530
REMARK  225  A    between atoms: _530  and  _531
REMARK  226  A    between atoms: _530  and  _533
REMARK  227  A    between atoms: _533  and  _534
REMARK  228  A    between atoms: _537  and  _539
REMARK  229  A    between atoms: _539  and  _540
REMARK  230  A    between atoms: _539  and  _542
REMARK  231  A    between atoms: _542  and  _543
REMARK  232  A    between atoms: _543  and  _544
REMARK  233  A    between atoms: _544  and  _545
REMARK  234  A    between atoms: _545  and  _546
REMARK  235  A    between atoms: _550  and  _552
REMARK  236  A    between atoms: _552  and  _553
REMARK  237  A    between atoms: _552  and  _555
REMARK  238  A    between atoms: _555  and  _556
REMARK  239  A    between atoms: _559  and  _561
REMARK  240  A    between atoms: _561  and  _562
REMARK  241  A    between atoms: _561  and  _564
REMARK  242  A    between atoms: _564  and  _565
REMARK  243  A    between atoms: _565  and  _566
REMARK  244  A    between atoms: _569  and  _570
REMARK  245  A    between atoms: _575  and  _577
REMARK  246  A    between atoms: _577  and  _578
REMARK  247  A    between atoms: _577  and  _580
REMARK  248  A    between atoms: _580  and  _581
REMARK  249  A    between atoms: _584  and  _586
REMARK  250  A    between atoms: _586  and  _587
REMARK  251  A    between atoms: _586  and  _589
REMARK  252  A    between atoms: _589  and  _590
REMARK  253  A    between atoms: _593  and  _595
REMARK  254  A    between atoms: _595  and  _596
REMARK  255  A    between atoms: _595  and  _598
REMARK  256  A    between atoms: _598  and  _599
REMARK  257  A    between atoms: _599  and  _600
REMARK  258  A    between atoms: _600  and  _601
REMARK  259  A    between atoms: _610  and  _612
REMARK  260  A    between atoms: _612  and  _613
REMARK  261  A    between atoms: _612  and  _615
REMARK  262  A    between atoms: _615  and  _616
REMARK  263  A    between atoms: _616  and  _617
REMARK  264  A    between atoms: _619  and  _621
REMARK  265  A    between atoms: _621  and  _622
REMARK  266  A    between atoms: _621  and  _624
REMARK  267  A    between atoms: _624  and  _625
REMARK                            x       y       z     vdW  Elec       q    Type
REMARK                         _______ _______ _______ _____ _____    ______ ____
ROOT
ATOM      1  C   LEU A   1      39.593   6.698  77.058  0.00  0.00    +0.238 C 
ATOM      2  O   LEU A   1      39.137   6.155  78.093  0.00  0.00    -0.274 OA
ATOM      3  N   THR A   2      38.800   7.373  76.257  0.00  0.00    -0.296 N 
ATOM      4  H   THR A   2      39.180   7.724  75.355  0.00  0.00    +0.150 HD
ENDROOT
BRANCH   1   5
ATOM      5  CA  LEU A   1      41.067   6.657  76.704  0.00  0.00    +0.145 C 
BRANCH   5   6
ATOM      6  N   LEU A   1      41.332   7.172  75.348  0.00  0.00    -0.238 NA
ATOM      7  H   LEU A   1      41.527   8.189  75.252  0.00  0.00    +0.142 HD
ENDBRANCH   5   6
BRANCH   5   8
ATOM      8  CB  LEU A   1      41.871   7.470  77.685  0.00  0.00    +0.026 C 
BRANCH   8   9
ATOM      9  CG  LEU A   1      41.887   7.093  79.151  0.00  0.00    +0.002 C 
ATOM     10  CD2 LEU A   1      42.849   7.965  79.939  0.00  0.00    +0.000 C 
ATOM     11  CD1 LEU A   1      42.264   5.623  79.314  0.00  0.00    +0.000 C 
ENDBRANCH   8   9
ENDBRANCH   5   8
ENDBRANCH   1   5
BRANCH   3  12
ATOM     12  CA  THR A   2      37.407   7.647  76.588  0.00  0.00    +0.164 C 
BRANCH  12  13
ATOM     13  C   THR A   2      36.602   6.390  76.951  0.00  0.00    +0.229 C 
ATOM     14  O   THR A   2      35.924   6.326  78.005  0.00  0.00    -0.286 OA
ENDBRANCH  12  13
BRANCH  12  15
ATOM     15  CB  THR A   2      36.682   8.351  75.409  0.00  0.00    +0.136 C 
ATOM     16  CG2 THR A   2      35.278   8.754  75.884  0.00  0.00    +0.034 C 
BRANCH  15  17
ATOM     17  OG1 THR A   2      37.371   9.539  75.015  0.00  0.00    -0.382 OA
ATOM     18  HG1 THR A   2      38.290   9.307  74.728  0.00  0.00    +0.210 HD
ENDBRANCH  15  17
ENDBRANCH  12  15
ENDBRANCH   3  12
TORSDOF 8
REMARK  Name = ../refined-set-2016/1fd0/1fd0_pocket.pdb
REMARK  267 active torsions:
REMARK  status: ('A' for Active; 'I' for Inactive)
REMARK    1  A    between atoms: _1  and  _3
REMARK    2  A    between atoms: _3  and  _4
REMARK    3  A    between atoms: _3  and  _6
REMARK    4  A    between atoms: _6  and  _7
REMARK    5  A    between atoms: _10  and  _12
REMARK    6  A    between atoms: _12  and  _13
REMARK    7  A    between atoms: _12  and  _15
REMARK    8  A    between atoms: _15  and  _16
REMARK    9  A    between atoms: _23  and  _24
REMARK   10  A    between atoms: _29  and  _31
REMARK   11  A    between atoms: _31  and  _32
REMARK   12  A    between atoms: _31  and  _34
REMARK   13  A    between atoms: _34  and  _35
REMARK   14  A    between atoms: _38  and  _40
REMARK   15  A    between atoms: _40  and  _41
REMARK   16  A    between atoms: _40  and  _43
REMARK   17  A    between atoms: _43  and  _44
REMARK   18  A    between atoms: _47  and  _49
REMARK   19  A    between atoms: _49  and  _50
REMARK   20  A    between atoms: _49  and  _52
REMARK   21  A    between atoms: _52  and  _53
REMARK   22  A    between atoms: _63  and  _65
REMARK   23  A    between atoms: _65  and  _66
REMARK   24  A    between atoms: _65  and  _68
REMARK   25  A    between atoms: _68  and  _69
REMARK   26  A    between atoms: _69  and  _70
REMARK   27  A    between atoms: _70  and  _71
REMARK   28  A    between atoms: _71  and  _72
REMARK   29  A    between atoms: _76  and  _78
REMARK   30  A    between atoms: _78  and  _79
REMARK   31  A    between atoms: _78  and  _81
REMARK   32  A    between atoms: _81  and  _82
REMARK   33  A    between atoms: _88  and  _90
REMARK   34  A    between atoms: _90  and  _91
REMARK   35  A    between atoms: _90  and  _93
REMARK   36  A    between atoms: _93  and  _94
REMARK   37  A    between atoms: _96  and  _98
REMARK   38  A    between atoms: _98  and  _99
REMARK   39  A    between atoms: _98  and  _101
REMARK   40  A    between atoms: _101  and  _102
REMARK   41  A    between atoms: _102  and  _103
REMARK   42  A    between atoms: _106  and  _108
REMARK   43  A    between atoms: _108  and  _109
REMARK   44  A    between atoms: _108  and  _111
REMARK   45  A    between atoms: _111  and  _112
REMARK   46  A    between atoms: _115  and  _117
REMARK   47  A    between atoms: _117  and  _118
REMARK   48  A    between atoms: _121  and  _123
REMARK   49  A    between atoms: _123  and  _124
REMARK   50  A    between atoms: _123  and  _126
REMARK   51  A    between atoms: _126  and  _127
REMARK   52  A    between atoms: _130  and  _132
REMARK   53  A    between atoms: _132  and  _133
REMARK   54  A    between atoms: _132  and  _135
REMARK   55  A    between atoms: _135  and  _136
REMARK   56  A    between atoms: _136  and  _137
REMARK   57  A    between atoms: _137  and  _138
REMARK   58  A    between atoms: _138  and  _139
REMARK   59  A    between atoms: _143  and  _145
REMARK   60  A    between atoms: _145  and  _146
REMARK   61  A    between atoms: _145  and  _148
REMARK   62  A    between atoms: _150  and  _152
REMARK   63  A    between atoms: _152  and  _153
REMARK   64  A    between atoms: _152  and  _155
REMARK   65  A    between atoms: _155  and  _156
REMARK   66  A    between atoms: _159  and  _161
REMARK   67  A    between atoms: _161  and  _162
REMARK   68  A    between atoms: _161  and  _164
REMARK   69  A    between atoms: _164  and  _165
REMARK   70  A    between atoms: _165  and  _166
REMARK   71  A    between atoms: _166  and  _167
REMARK   72  A    between atoms: _167  and  _168
REMARK   73  A    between atoms: _172  and  _174
REMARK   74  A    between atoms: _174  and  _175
REMARK   75  A    between atoms: _174  and  _177
REMARK   76  A    between atoms: _177  and  _178
REMARK   77  A    between atoms: _181  and  _183
REMARK   78  A    between atoms: _183  and  _184
REMARK   79  A    between atoms: _183  and  _186
REMARK   80  A    between atoms: _188  and  _190
REMARK   81  A    between atoms: _190  and  _191
REMARK   82  A    between atoms: _190  and  _193
REMARK   83  A    between atoms: _193  and  _194
REMARK   84  A    between atoms: _197  and  _199
REMARK   85  A    between atoms: _199  and  _200
REMARK   86  A    between atoms: _199  and  _202
REMARK   87  A    between atoms: _202  and  _203
REMARK   88  A    between atoms: _206  and  _208
REMARK   89  A    between atoms: _208  and  _209
REMARK   90  A    between atoms: _208  and  _211
REMARK   91  A    between atoms: _211  and  _212
REMARK   92  A    between atoms: _215  and  _217
REMARK   93  A    between atoms: _217  and  _218
REMARK   94  A    between atoms: _217  and  _220
REMARK   95  A    between atoms: _220  and  _221
REMARK   96  A    between atoms: _224  and  _226
REMARK   97  A    between atoms: _226  and  _227
REMARK   98  A    between atoms: _226  and  _229
REMARK   99  A    between atoms: _229  and  _230
REMARK  100  A    between atoms: _230  and  _231
REMARK  101  A    between atoms: _233  and  _235
REMARK  102  A    between atoms: _235  and  _236
REMARK  103  A    between atoms: _235  and  _238
REMARK  104  A    between atoms: _238  and  _239
REMARK  105  A    between atoms: _242  and  _244
REMARK  106  A    between atoms: _244  and  _245
REMARK  107  A    between atoms: _244  and  _247
REMARK  108  A    between atoms: _247  and  _248
REMARK  109  A    between atoms: _248  and  _249
REMARK  110  A    between atoms: _249  and  _250
REMARK  111  A    between atoms: _259  and  _261
REMARK  112  A    between atoms: _261  and  _262
REMARK  113  A    between atoms: _261  and  _264
REMARK  114  A    between atoms: _264  and  _265
REMARK  115  A    between atoms: _268  and  _270
REMARK  116  A    between atoms: _270  and  _271
REMARK  117  A    between atoms: _270  and  _273
REMARK  118  A    between atoms: _275  and  _277
REMARK  119  A    between atoms: _277  and  _278
REMARK  120  A    between atoms: _277  and  _280
REMARK  121  A    between atoms: _280  and  _281
REMARK  122  A    between atoms: _284  and  _286
REMARK  123  A    between atoms: _286  and  _287
REMARK  124  A    between atoms: _286  and  _289
REMARK  125  A    between atoms: _289  and  _290
REMARK  126  A    between atoms: _290  and  _291
REMARK  127  A    between atoms: _291  and  _292
REMARK  128  A    between atoms: _301  and  _303
REMARK  129  A    between atoms: _303  and  _304
REMARK  130  A    between atoms: _303  and  _306
REMARK  131  A    between atoms: _306  and  _307
REMARK  132  A    between atoms: _307  and  _308
REMARK  133  A    between atoms: _310  and  _312
REMARK  134  A    between atoms: _312  and  _313
REMARK  135  A    between atoms: _312  and  _315
REMARK  136  A    between atoms: _315  and  _316
REMARK  137  A    between atoms: _319  and  _321
REMARK  138  A    between atoms: _321  and  _322
REMARK  139  A    between atoms: _321  and  _324
REMARK  140  A    between atoms: _324  and  _325
REMARK  141  A    between atoms: _331  and  _333
REMARK  142  A    between atoms: _333  and  _334
REMARK  143  A    between atoms: _333  and  _336
REMARK  144  A    between atoms: _336  and  _337
REMARK  145  A    between atoms: _339  and  _341
REMARK  146  A    between atoms: _341  and  _342
REMARK  147  A    between atoms: _341  and  _344
REMARK  148  A    between atoms: _344  and  _345
REMARK  149  A    between atoms: _348  and  _350
REMARK  150  A    between atoms: _350  and  _351
REMARK  151  A    between atoms: _353  and  _355
REMARK  152  A    between atoms: _355  and  _356
REMARK  153  A    between atoms: _355  and  _358
REMARK  154  A    between atoms: _358  and  _359
REMARK  155  A    between atoms: _362  and  _364
REMARK  156  A    between atoms: _364  and  _365
REMARK  157  A    between atoms: _364  and  _367
REMARK  158  A    between atoms: _367  and  _368
REMARK  159  A    between atoms: _368  and  _369
REMARK  160  A    between atoms: _371  and  _373
REMARK  161  A    between atoms: _373  and  _374
REMARK  162  A    between atoms: _373  and  _376
REMARK  163  A    between atoms: _376  and  _377
REMARK  164  A    between atoms: _382  and  _384
REMARK  165  A    between atoms: _384  and  _385
REMARK  166  A    between atoms: _388  and  _390
REMARK  167  A    between atoms: _390  and  _391
REMARK  168  A    between atoms: _393  and  _395
REMARK  169  A    between atoms: _395  and  _396
REMARK  170  A    between atoms: _395  and  _398
REMARK  171  A    between atoms: _398  and  _399
REMARK  172  A    between atoms: _405  and  _407
REMARK  173  A    between atoms: _407  and  _408
REMARK  174  A    between atoms: _410  and  _412
REMARK  175  A    between atoms: _412  and  _413
REMARK  176  A    between atoms: _412  and  _415
REMARK  177  A    between atoms: _415  and  _416
REMARK  178  A    between atoms: _419  and  _421
REMARK  179  A    between atoms: _421  and  _422
REMARK  180  A    between atoms: _421  and  _424
REMARK  181  A    between atoms: _424  and  _425
REMARK  182  A    between atoms: _428  and  _430
REMARK  183  A    between atoms: _430  and  _431
REMARK  184  A    between atoms: _430  and  _433
REMARK  185  A    between atoms: _436  and  _438
REMARK  186  A    between atoms: _438  and  _439
REMARK  187  A    between atoms: _438  and  _441
REMARK  188  A    between atoms: _441  and  _442
REMARK  189  A    between atoms: _445  and  _447
REMARK  190  A    between atoms: _447  and  _448
REMARK  191  A    between atoms: _447  and  _450
REMARK  192  A    between atoms: _450  and  _451
REMARK  193  A    between atoms: _453  and  _455
REMARK  194  A    between atoms: _455  and  _456
REMARK  195  A    between atoms: _455  and  _458
REMARK  196  A    between atoms: _458  and  _459
REMARK  197  A    between atoms: _459  and  _460
REMARK  198  A    between atoms: _460  and  _461
REMARK  199  A    between atoms: _461  and  _462
REMARK  200  A    between atoms: _466  and  _468
REMARK  201  A    between atoms: _468  and  _469
REMARK  202  A    between atoms: _471  and  _473
REMARK  203  A    between atoms: _473  and  _474
REMARK  204  A    between atoms: _477  and  _479
REMARK  205  A    between atoms: _479  and  _480
REMARK  206  A    between atoms: _479  and  _482
REMARK  207  A    between atoms: _483  and  _484
REMARK  208  A    between atoms: _487  and  _489
REMARK  209  A    between atoms: _489  and  _490
REMARK  210  A    between atoms: _489  and  _492
REMARK  211  A    between atoms: _492  and  _493
REMARK  212  A    between atoms: _493  and  _494
REMARK  213  A    between atoms: _494  and  _495
REMARK  214  A    between atoms: _504  and  _506
REMARK  215  A    between atoms: _506  and  _507
REMARK  216  A    between atoms: _510  and  _512
REMARK  217  A    between atoms: _512  and  _513
REMARK  218  A    between atoms: _512  and  _515
REMARK  219  A    between atoms: _515  and  _516
REMARK  220  A    between atoms: _519  and  _521
REMARK  221  A    between atoms: _521  and  _522
REMARK  222  A    between atoms: _521  and  _524
REMARK  223  A    between atoms: _524  and  _525
REMARK  224  A    between atoms: _528  and  _530
REMARK  225  A    between atoms: _530  and  _531
REMARK  226  A    between atoms: _530  and  _533
REMARK  227  A    between atoms: _533  and  _534
REMARK  228  A    between atoms: _537  and  _539
REMARK  229  A    between atoms: _539  and  _540
REMARK  230  A    between atoms: _539  and  _542
REMARK  231  A    between atoms: _542  and  _543
REMARK  232  A    between atoms: _543  and  _544
REMARK  233  A    between atoms: _544  and  _545
REMARK  234  A    between atoms: _545  and  _546
REMARK  235  A    between atoms: _550  and  _552
REMARK  236  A    between atoms: _552  and  _553
REMARK  237  A    between atoms: _552  and  _555
REMARK  238  A    between atoms: _555  and  _556
REMARK  239  A    between atoms: _559  and  _561
REMARK  240  A    between atoms: _561  and  _562
REMARK  241  A    between atoms: _561  and  _564
REMARK  242  A    between atoms: _564  and  _565
REMARK  243  A    between atoms: _565  and  _566
REMARK  244  A    between atoms: _569  and  _570
REMARK  245  A    between atoms: _575  and  _577
REMARK  246  A    between atoms: _577  and  _578
REMARK  247  A    between atoms: _577  and  _580
REMARK  248  A    between atoms: _580  and  _581
REMARK  249  A    between atoms: _584  and  _586
REMARK  250  A    between atoms: _586  and  _587
REMARK  251  A    between atoms: _586  and  _589
REMARK  252  A    between atoms: _589  and  _590
REMARK  253  A    between atoms: _593  and  _595
REMARK  254  A    between atoms: _595  and  _596
REMARK  255  A    between atoms: _595  and  _598
REMARK  256  A    between atoms: _598  and  _599
REMARK  257  A    between atoms: _599  and  _600
REMARK  258  A    between atoms: _600  and  _601
REMARK  259  A    between atoms: _610  and  _612
REMARK  260  A    between atoms: _612  and  _613
REMARK  261  A    between atoms: _612  and  _615
REMARK  262  A    between atoms: _615  and  _616
REMARK  263  A    between atoms: _616  and  _617
REMARK  264  A    between atoms: _619  and  _621
REMARK  265  A    between atoms: _621  and  _622
REMARK  266  A    between atoms: _621  and  _624
REMARK  267  A    between atoms: _624  and  _625
REMARK                            x       y       z     vdW  Elec       q    Type
REMARK                         _______ _______ _______ _____ _____    ______ ____
ROOT
ATOM      1  CA  VAL A   1      36.969   5.477  81.428  0.00  0.00    +0.133 C 
ENDROOT
BRANCH   1   2
ATOM      2  CB  VAL A   1      37.316   6.983  81.300  0.00  0.00    +0.023 C 
ATOM      3  CG2 VAL A   1      36.582   7.805  82.359  0.00  0.00    +0.002 C 
ATOM      4  CG1 VAL A   1      38.829   7.127  81.363  0.00  0.00    +0.002 C 
ENDBRANCH   1   2
BRANCH   1   5
ATOM      5  N   VAL A   1      37.477   4.765  80.259  0.00  0.00    -0.239 NA
ATOM      6  H   VAL A   1      37.828   5.288  79.431  0.00  0.00    +0.142 HD
ENDBRANCH   1   5
BRANCH   1   7
ATOM      7  C   VAL A   1      35.476   5.253  81.576  0.00  0.00    +0.224 C 
ATOM      8  O   VAL A   1      35.005   5.019  82.712  0.00  0.00    -0.287 OA
ENDBRANCH   1   7
TORSDOF 3
REMARK  Name = ../refined-set-2016/1fd0/1fd0_pocket.pdb
REMARK  267 active torsions:
REMARK  status: ('A' for Active; 'I' for Inactive)
REMARK    1  A    between atoms: _1  and  _3
REMARK    2  A    between atoms: _3  and  _4
REMARK    3  A    between atoms: _3  and  _6
REMARK    4  A    between atoms: _6  and  _7
REMARK    5  A    between atoms: _10  and  _12
REMARK    6  A    between atoms: _12  and  _13
REMARK    7  A    between atoms: _12  and  _15
REMARK    8  A    between atoms: _15  and  _16
REMARK    9  A    between atoms: _23  and  _24
REMARK   10  A    between atoms: _29  and  _31
REMARK   11  A    between atoms: _31  and  _32
REMARK   12  A    between atoms: _31  and  _34
REMARK   13  A    between atoms: _34  and  _35
REMARK   14  A    between atoms: _38  and  _40
REMARK   15  A    between atoms: _40  and  _41
REMARK   16  A    between atoms: _40  and  _43
REMARK   17  A    between atoms: _43  and  _44
REMARK   18  A    between atoms: _47  and  _49
REMARK   19  A    between atoms: _49  and  _50
REMARK   20  A    between atoms: _49  and  _52
REMARK   21  A    between atoms: _52  and  _53
REMARK   22  A    between atoms: _63  and  _65
REMARK   23  A    between atoms: _65  and  _66
REMARK   24  A    between atoms: _65  and  _68
REMARK   25  A    between atoms: _68  and  _69
REMARK   26  A    between atoms: _69  and  _70
REMARK   27  A    between atoms: _70  and  _71
REMARK   28  A    between atoms: _71  and  _72
REMARK   29  A    between atoms: _76  and  _78
REMARK   30  A    between atoms: _78  and  _79
REMARK   31  A    between atoms: _78  and  _81
REMARK   32  A    between atoms: _81  and  _82
REMARK   33  A    between atoms: _88  and  _90
REMARK   34  A    between atoms: _90  and  _91
REMARK   35  A    between atoms: _90  and  _93
REMARK   36  A    between atoms: _93  and  _94
REMARK   37  A    between atoms: _96  and  _98
REMARK   38  A    between atoms: _98  and  _99
REMARK   39  A    between atoms: _98  and  _101
REMARK   40  A    between atoms: _101  and  _102
REMARK   41  A    between atoms: _102  and  _103
REMARK   42  A    between atoms: _106  and  _108
REMARK   43  A    between atoms: _108  and  _109
REMARK   44  A    between atoms: _108  and  _111
REMARK   45  A    between atoms: _111  and  _112
REMARK   46  A    between atoms: _115  and  _117
REMARK   47  A    between atoms: _117  and  _118
REMARK   48  A    between atoms: _121  and  _123
REMARK   49  A    between atoms: _123  and  _124
REMARK   50  A    between atoms: _123  and  _126
REMARK   51  A    between atoms: _126  and  _127
REMARK   52  A    between atoms: _130  and  _132
REMARK   53  A    between atoms: _132  and  _133
REMARK   54  A    between atoms: _132  and  _135
REMARK   55  A    between atoms: _135  and  _136
REMARK   56  A    between atoms: _136  and  _137
REMARK   57  A    between atoms: _137  and  _138
REMARK   58  A    between atoms: _138  and  _139
REMARK   59  A    between atoms: _143  and  _145
REMARK   60  A    between atoms: _145  and  _146
REMARK   61  A    between atoms: _145  and  _148
REMARK   62  A    between atoms: _150  and  _152
REMARK   63  A    between atoms: _152  and  _153
REMARK   64  A    between atoms: _152  and  _155
REMARK   65  A    between atoms: _155  and  _156
REMARK   66  A    between atoms: _159  and  _161
REMARK   67  A    between atoms: _161  and  _162
REMARK   68  A    between atoms: _161  and  _164
REMARK   69  A    between atoms: _164  and  _165
REMARK   70  A    between atoms: _165  and  _166
REMARK   71  A    between atoms: _166  and  _167
REMARK   72  A    between atoms: _167  and  _168
REMARK   73  A    between atoms: _172  and  _174
REMARK   74  A    between atoms: _174  and  _175
REMARK   75  A    between atoms: _174  and  _177
REMARK   76  A    between atoms: _177  and  _178
REMARK   77  A    between atoms: _181  and  _183
REMARK   78  A    between atoms: _183  and  _184
REMARK   79  A    between atoms: _183  and  _186
REMARK   80  A    between atoms: _188  and  _190
REMARK   81  A    between atoms: _190  and  _191
REMARK   82  A    between atoms: _190  and  _193
REMARK   83  A    between atoms: _193  and  _194
REMARK   84  A    between atoms: _197  and  _199
REMARK   85  A    between atoms: _199  and  _200
REMARK   86  A    between atoms: _199  and  _202
REMARK   87  A    between atoms: _202  and  _203
REMARK   88  A    between atoms: _206  and  _208
REMARK   89  A    between atoms: _208  and  _209
REMARK   90  A    between atoms: _208  and  _211
REMARK   91  A    between atoms: _211  and  _212
REMARK   92  A    between atoms: _215  and  _217
REMARK   93  A    between atoms: _217  and  _218
REMARK   94  A    between atoms: _217  and  _220
REMARK   95  A    between atoms: _220  and  _221
REMARK   96  A    between atoms: _224  and  _226
REMARK   97  A    between atoms: _226  and  _227
REMARK   98  A    between atoms: _226  and  _229
REMARK   99  A    between atoms: _229  and  _230
REMARK  100  A    between atoms: _230  and  _231
REMARK  101  A    between atoms: _233  and  _235
REMARK  102  A    between atoms: _235  and  _236
REMARK  103  A    between atoms: _235  and  _238
REMARK  104  A    between atoms: _238  and  _239
REMARK  105  A    between atoms: _242  and  _244
REMARK  106  A    between atoms: _244  and  _245
REMARK  107  A    between atoms: _244  and  _247
REMARK  108  A    between atoms: _247  and  _248
REMARK  109  A    between atoms: _248  and  _249
REMARK  110  A    between atoms: _249  and  _250
REMARK  111  A    between atoms: _259  and  _261
REMARK  112  A    between atoms: _261  and  _262
REMARK  113  A    between atoms: _261  and  _264
REMARK  114  A    between atoms: _264  and  _265
REMARK  115  A    between atoms: _268  and  _270
REMARK  116  A    between atoms: _270  and  _271
REMARK  117  A    between atoms: _270  and  _273
REMARK  118  A    between atoms: _275  and  _277
REMARK  119  A    between atoms: _277  and  _278
REMARK  120  A    between atoms: _277  and  _280
REMARK  121  A    between atoms: _280  and  _281
REMARK  122  A    between atoms: _284  and  _286
REMARK  123  A    between atoms: _286  and  _287
REMARK  124  A    between atoms: _286  and  _289
REMARK  125  A    between atoms: _289  and  _290
REMARK  126  A    between atoms: _290  and  _291
REMARK  127  A    between atoms: _291  and  _292
REMARK  128  A    between atoms: _301  and  _303
REMARK  129  A    between atoms: _303  and  _304
REMARK  130  A    between atoms: _303  and  _306
REMARK  131  A    between atoms: _306  and  _307
REMARK  132  A    between atoms: _307  and  _308
REMARK  133  A    between atoms: _310  and  _312
REMARK  134  A    between atoms: _312  and  _313
REMARK  135  A    between atoms: _312  and  _315
REMARK  136  A    between atoms: _315  and  _316
REMARK  137  A    between atoms: _319  and  _321
REMARK  138  A    between atoms: _321  and  _322
REMARK  139  A    between atoms: _321  and  _324
REMARK  140  A    between atoms: _324  and  _325
REMARK  141  A    between atoms: _331  and  _333
REMARK  142  A    between atoms: _333  and  _334
REMARK  143  A    between atoms: _333  and  _336
REMARK  144  A    between atoms: _336  and  _337
REMARK  145  A    between atoms: _339  and  _341
REMARK  146  A    between atoms: _341  and  _342
REMARK  147  A    between atoms: _341  and  _344
REMARK  148  A    between atoms: _344  and  _345
REMARK  149  A    between atoms: _348  and  _350
REMARK  150  A    between atoms: _350  and  _351
REMARK  151  A    between atoms: _353  and  _355
REMARK  152  A    between atoms: _355  and  _356
REMARK  153  A    between atoms: _355  and  _358
REMARK  154  A    between atoms: _358  and  _359
REMARK  155  A    between atoms: _362  and  _364
REMARK  156  A    between atoms: _364  and  _365
REMARK  157  A    between atoms: _364  and  _367
REMARK  158  A    between atoms: _367  and  _368
REMARK  159  A    between atoms: _368  and  _369
REMARK  160  A    between atoms: _371  and  _373
REMARK  161  A    between atoms: _373  and  _374
REMARK  162  A    between atoms: _373  and  _376
REMARK  163  A    between atoms: _376  and  _377
REMARK  164  A    between atoms: _382  and  _384
REMARK  165  A    between atoms: _384  and  _385
REMARK  166  A    between atoms: _388  and  _390
REMARK  167  A    between atoms: _390  and  _391
REMARK  168  A    between atoms: _393  and  _395
REMARK  169  A    between atoms: _395  and  _396
REMARK  170  A    between atoms: _395  and  _398
REMARK  171  A    between atoms: _398  and  _399
REMARK  172  A    between atoms: _405  and  _407
REMARK  173  A    between atoms: _407  and  _408
REMARK  174  A    between atoms: _410  and  _412
REMARK  175  A    between atoms: _412  and  _413
REMARK  176  A    between atoms: _412  and  _415
REMARK  177  A    between atoms: _415  and  _416
REMARK  178  A    between atoms: _419  and  _421
REMARK  179  A    between atoms: _421  and  _422
REMARK  180  A    between atoms: _421  and  _424
REMARK  181  A    between atoms: _424  and  _425
REMARK  182  A    between atoms: _428  and  _430
REMARK  183  A    between atoms: _430  and  _431
REMARK  184  A    between atoms: _430  and  _433
REMARK  185  A    between atoms: _436  and  _438
REMARK  186  A    between atoms: _438  and  _439
REMARK  187  A    between atoms: _438  and  _441
REMARK  188  A    between atoms: _441  and  _442
REMARK  189  A    between atoms: _445  and  _447
REMARK  190  A    between atoms: _447  and  _448
REMARK  191  A    between atoms: _447  and  _450
REMARK  192  A    between atoms: _450  and  _451
REMARK  193  A    between atoms: _453  and  _455
REMARK  194  A    between atoms: _455  and  _456
REMARK  195  A    between atoms: _455  and  _458
REMARK  196  A    between atoms: _458  and  _459
REMARK  197  A    between atoms: _459  and  _460
REMARK  198  A    between atoms: _460  and  _461
REMARK  199  A    between atoms: _461  and  _462
REMARK  200  A    between atoms: _466  and  _468
REMARK  201  A    between atoms: _468  and  _469
REMARK  202  A    between atoms: _471  and  _473
REMARK  203  A    between atoms: _473  and  _474
REMARK  204  A    between atoms: _477  and  _479
REMARK  205  A    between atoms: _479  and  _480
REMARK  206  A    between atoms: _479  and  _482
REMARK  207  A    between atoms: _483  and  _484
REMARK  208  A    between atoms: _487  and  _489
REMARK  209  A    between atoms: _489  and  _490
REMARK  210  A    between atoms: _489  and  _492
REMARK  211  A    between atoms: _492  and  _493
REMARK  212  A    between atoms: _493  and  _494
REMARK  213  A    between atoms: _494  and  _495
REMARK  214  A    between atoms: _504  and  _506
REMARK  215  A    between atoms: _506  and  _507
REMARK  216  A    between atoms: _510  and  _512
REMARK  217  A    between atoms: _512  and  _513
REMARK  218  A    between atoms: _512  and  _515
REMARK  219  A    between atoms: _515  and  _516
REMARK  220  A    between atoms: _519  and  _521
REMARK  221  A    between atoms: _521  and  _522
REMARK  222  A    between atoms: _521  and  _524
REMARK  223  A    between atoms: _524  and  _525
REMARK  224  A    between atoms: _528  and  _530
REMARK  225  A    between atoms: _530  and  _531
REMARK  226  A    between atoms: _530  and  _533
REMARK  227  A    between atoms: _533  and  _534
REMARK  228  A    between atoms: _537  and  _539
REMARK  229  A    between atoms: _539  and  _540
REMARK  230  A    between atoms: _539  and  _542
REMARK  231  A    between atoms: _542  and  _543
REMARK  232  A    between atoms: _543  and  _544
REMARK  233  A    between atoms: _544  and  _545
REMARK  234  A    between atoms: _545  and  _546
REMARK  235  A    between atoms: _550  and  _552
REMARK  236  A    between atoms: _552  and  _553
REMARK  237  A    between atoms: _552  and  _555
REMARK  238  A    between atoms: _555  and  _556
REMARK  239  A    between atoms: _559  and  _561
REMARK  240  A    between atoms: _561  and  _562
REMARK  241  A    between atoms: _561  and  _564
REMARK  242  A    between atoms: _564  and  _565
REMARK  243  A    between atoms: _565  and  _566
REMARK  244  A    between atoms: _569  and  _570
REMARK  245  A    between atoms: _575  and  _577
REMARK  246  A    between atoms: _577  and  _578
REMARK  247  A    between atoms: _577  and  _580
REMARK  248  A    between atoms: _580  and  _581
REMARK  249  A    between atoms: _584  and  _586
REMARK  250  A    between atoms: _586  and  _587
REMARK  251  A    between atoms: _586  and  _589
REMARK  252  A    between atoms: _589  and  _590
REMARK  253  A    between atoms: _593  and  _595
REMARK  254  A    between atoms: _595  and  _596
REMARK  255  A    between atoms: _595  and  _598
REMARK  256  A    between atoms: _598  and  _599
REMARK  257  A    between atoms: _599  and  _600
REMARK  258  A    between atoms: _600  and  _601
REMARK  259  A    between atoms: _610  and  _612
REMARK  260  A    between atoms: _612  and  _613
REMARK  261  A    between atoms: _612  and  _615
REMARK  262  A    between atoms: _615  and  _616
REMARK  263  A    between atoms: _616  and  _617
REMARK  264  A    between atoms: _619  and  _621
REMARK  265  A    between atoms: _621  and  _622
REMARK  266  A    between atoms: _621  and  _624
REMARK  267  A    between atoms: _624  and  _625
REMARK                            x       y       z     vdW  Elec       q    Type
REMARK                         _______ _______ _______ _____ _____    ______ ____
ROOT
ATOM      1  C   ILE A   1      44.079   5.415  84.657  0.00  0.00    +0.238 C 
ATOM      2  N   SER A   2      44.545   5.709  85.860  0.00  0.00    -0.296 N 
ATOM      3  H   SER A   2      44.347   5.100  86.679  0.00  0.00    +0.150 HD
ATOM      4  O   ILE A   1      44.272   6.104  83.650  0.00  0.00    -0.274 OA
ENDROOT
BRANCH   1   5
ATOM      5  CA  ILE A   1      43.365   4.102  84.513  0.00  0.00    +0.145 C 
BRANCH   5   6
ATOM      6  N   ILE A   1      43.938   3.096  85.428  0.00  0.00    -0.238 NA
ATOM      7  H   ILE A   1      43.423   2.788  86.277  0.00  0.00    +0.142 HD
ENDBRANCH   5   6
BRANCH   5   8
ATOM      8  CB  ILE A   1      41.874   4.337  84.769  0.00  0.00    +0.025 C 
ATOM      9  CG2 ILE A   1      41.478   5.669  84.178  0.00  0.00    +0.002 C 
BRANCH   8  10
ATOM     10  CG1 ILE A   1      41.086   3.132  84.251  0.00  0.00    +0.002 C 
ATOM     11  CD1 ILE A   1      39.909   2.869  85.149  0.00  0.00    +0.000 C 
ENDBRANCH   8  10
ENDBRANCH   5   8
ENDBRANCH   1   5
BRANCH   2  12
ATOM     12  CA  SER A   2      45.362   6.944  85.996  0.00  0.00    +0.166 C 
BRANCH  12  13
ATOM     13  C   SER A   2      46.699   6.820  85.300  0.00  0.00    +0.229 C 
ATOM     14  O   SER A   2      47.164   7.821  84.687  0.00  0.00    -0.286 OA
ENDBRANCH  12  13
BRANCH  12  15
ATOM     15  CB  SER A   2      45.535   7.295  87.477  0.00  0.00    +0.165 C 
BRANCH  15  16
ATOM     16  OG  SER A   2      44.257   7.511  88.040  0.00  0.00    -0.380 OA
ATOM     17  H   SER A   2      43.714   6.688  87.949  0.00  0.00    +0.211 HD
ENDBRANCH  15  16
ENDBRANCH  12  15
ENDBRANCH   2  12
TORSDOF 8
REMARK  Name = ../refined-set-2016/1fd0/1fd0_pocket.pdb
REMARK  267 active torsions:
REMARK  status: ('A' for Active; 'I' for Inactive)
REMARK    1  A    between atoms: _1  and  _3
REMARK    2  A    between atoms: _3  and  _4
REMARK    3  A    between atoms: _3  and  _6
REMARK    4  A    between atoms: _6  and  _7
REMARK    5  A    between atoms: _10  and  _12
REMARK    6  A    between atoms: _12  and  _13
REMARK    7  A    between atoms: _12  and  _15
REMARK    8  A    between atoms: _15  and  _16
REMARK    9  A    between atoms: _23  and  _24
REMARK   10  A    between atoms: _29  and  _31
REMARK   11  A    between atoms: _31  and  _32
REMARK   12  A    between atoms: _31  and  _34
REMARK   13  A    between atoms: _34  and  _35
REMARK   14  A    between atoms: _38  and  _40
REMARK   15  A    between atoms: _40  and  _41
REMARK   16  A    between atoms: _40  and  _43
REMARK   17  A    between atoms: _43  and  _44
REMARK   18  A    between atoms: _47  and  _49
REMARK   19  A    between atoms: _49  and  _50
REMARK   20  A    between atoms: _49  and  _52
REMARK   21  A    between atoms: _52  and  _53
REMARK   22  A    between atoms: _63  and  _65
REMARK   23  A    between atoms: _65  and  _66
REMARK   24  A    between atoms: _65  and  _68
REMARK   25  A    between atoms: _68  and  _69
REMARK   26  A    between atoms: _69  and  _70
REMARK   27  A    between atoms: _70  and  _71
REMARK   28  A    between atoms: _71  and  _72
REMARK   29  A    between atoms: _76  and  _78
REMARK   30  A    between atoms: _78  and  _79
REMARK   31  A    between atoms: _78  and  _81
REMARK   32  A    between atoms: _81  and  _82
REMARK   33  A    between atoms: _88  and  _90
REMARK   34  A    between atoms: _90  and  _91
REMARK   35  A    between atoms: _90  and  _93
REMARK   36  A    between atoms: _93  and  _94
REMARK   37  A    between atoms: _96  and  _98
REMARK   38  A    between atoms: _98  and  _99
REMARK   39  A    between atoms: _98  and  _101
REMARK   40  A    between atoms: _101  and  _102
REMARK   41  A    between atoms: _102  and  _103
REMARK   42  A    between atoms: _106  and  _108
REMARK   43  A    between atoms: _108  and  _109
REMARK   44  A    between atoms: _108  and  _111
REMARK   45  A    between atoms: _111  and  _112
REMARK   46  A    between atoms: _115  and  _117
REMARK   47  A    between atoms: _117  and  _118
REMARK   48  A    between atoms: _121  and  _123
REMARK   49  A    between atoms: _123  and  _124
REMARK   50  A    between atoms: _123  and  _126
REMARK   51  A    between atoms: _126  and  _127
REMARK   52  A    between atoms: _130  and  _132
REMARK   53  A    between atoms: _132  and  _133
REMARK   54  A    between atoms: _132  and  _135
REMARK   55  A    between atoms: _135  and  _136
REMARK   56  A    between atoms: _136  and  _137
REMARK   57  A    between atoms: _137  and  _138
REMARK   58  A    between atoms: _138  and  _139
REMARK   59  A    between atoms: _143  and  _145
REMARK   60  A    between atoms: _145  and  _146
REMARK   61  A    between atoms: _145  and  _148
REMARK   62  A    between atoms: _150  and  _152
REMARK   63  A    between atoms: _152  and  _153
REMARK   64  A    between atoms: _152  and  _155
REMARK   65  A    between atoms: _155  and  _156
REMARK   66  A    between atoms: _159  and  _161
REMARK   67  A    between atoms: _161  and  _162
REMARK   68  A    between atoms: _161  and  _164
REMARK   69  A    between atoms: _164  and  _165
REMARK   70  A    between atoms: _165  and  _166
REMARK   71  A    between atoms: _166  and  _167
REMARK   72  A    between atoms: _167  and  _168
REMARK   73  A    between atoms: _172  and  _174
REMARK   74  A    between atoms: _174  and  _175
REMARK   75  A    between atoms: _174  and  _177
REMARK   76  A    between atoms: _177  and  _178
REMARK   77  A    between atoms: _181  and  _183
REMARK   78  A    between atoms: _183  and  _184
REMARK   79  A    between atoms: _183  and  _186
REMARK   80  A    between atoms: _188  and  _190
REMARK   81  A    between atoms: _190  and  _191
REMARK   82  A    between atoms: _190  and  _193
REMARK   83  A    between atoms: _193  and  _194
REMARK   84  A    between atoms: _197  and  _199
REMARK   85  A    between atoms: _199  and  _200
REMARK   86  A    between atoms: _199  and  _202
REMARK   87  A    between atoms: _202  and  _203
REMARK   88  A    between atoms: _206  and  _208
REMARK   89  A    between atoms: _208  and  _209
REMARK   90  A    between atoms: _208  and  _211
REMARK   91  A    between atoms: _211  and  _212
REMARK   92  A    between atoms: _215  and  _217
REMARK   93  A    between atoms: _217  and  _218
REMARK   94  A    between atoms: _217  and  _220
REMARK   95  A    between atoms: _220  and  _221
REMARK   96  A    between atoms: _224  and  _226
REMARK   97  A    between atoms: _226  and  _227
REMARK   98  A    between atoms: _226  and  _229
REMARK   99  A    between atoms: _229  and  _230
REMARK  100  A    between atoms: _230  and  _231
REMARK  101  A    between atoms: _233  and  _235
REMARK  102  A    between atoms: _235  and  _236
REMARK  103  A    between atoms: _235  and  _238
REMARK  104  A    between atoms: _238  and  _239
REMARK  105  A    between atoms: _242  and  _244
REMARK  106  A    between atoms: _244  and  _245
REMARK  107  A    between atoms: _244  and  _247
REMARK  108  A    between atoms: _247  and  _248
REMARK  109  A    between atoms: _248  and  _249
REMARK  110  A    between atoms: _249  and  _250
REMARK  111  A    between atoms: _259  and  _261
REMARK  112  A    between atoms: _261  and  _262
REMARK  113  A    between atoms: _261  and  _264
REMARK  114  A    between atoms: _264  and  _265
REMARK  115  A    between atoms: _268  and  _270
REMARK  116  A    between atoms: _270  and  _271
REMARK  117  A    between atoms: _270  and  _273
REMARK  118  A    between atoms: _275  and  _277
REMARK  119  A    between atoms: _277  and  _278
REMARK  120  A    between atoms: _277  and  _280
REMARK  121  A    between atoms: _280  and  _281
REMARK  122  A    between atoms: _284  and  _286
REMARK  123  A    between atoms: _286  and  _287
REMARK  124  A    between atoms: _286  and  _289
REMARK  125  A    between atoms: _289  and  _290
REMARK  126  A    between atoms: _290  and  _291
REMARK  127  A    between atoms: _291  and  _292
REMARK  128  A    between atoms: _301  and  _303
REMARK  129  A    between atoms: _303  and  _304
REMARK  130  A    between atoms: _303  and  _306
REMARK  131  A    between atoms: _306  and  _307
REMARK  132  A    between atoms: _307  and  _308
REMARK  133  A    between atoms: _310  and  _312
REMARK  134  A    between atoms: _312  and  _313
REMARK  135  A    between atoms: _312  and  _315
REMARK  136  A    between atoms: _315  and  _316
REMARK  137  A    between atoms: _319  and  _321
REMARK  138  A    between atoms: _321  and  _322
REMARK  139  A    between atoms: _321  and  _324
REMARK  140  A    between atoms: _324  and  _325
REMARK  141  A    between atoms: _331  and  _333
REMARK  142  A    between atoms: _333  and  _334
REMARK  143  A    between atoms: _333  and  _336
REMARK  144  A    between atoms: _336  and  _337
REMARK  145  A    between atoms: _339  and  _341
REMARK  146  A    between atoms: _341  and  _342
REMARK  147  A    between atoms: _341  and  _344
REMARK  148  A    between atoms: _344  and  _345
REMARK  149  A    between atoms: _348  and  _350
REMARK  150  A    between atoms: _350  and  _351
REMARK  151  A    between atoms: _353  and  _355
REMARK  152  A    between atoms: _355  and  _356
REMARK  153  A    between atoms: _355  and  _358
REMARK  154  A    between atoms: _358  and  _359
REMARK  155  A    between atoms: _362  and  _364
REMARK  156  A    between atoms: _364  and  _365
REMARK  157  A    between atoms: _364  and  _367
REMARK  158  A    between atoms: _367  and  _368
REMARK  159  A    between atoms: _368  and  _369
REMARK  160  A    between atoms: _371  and  _373
REMARK  161  A    between atoms: _373  and  _374
REMARK  162  A    between atoms: _373  and  _376
REMARK  163  A    between atoms: _376  and  _377
REMARK  164  A    between atoms: _382  and  _384
REMARK  165  A    between atoms: _384  and  _385
REMARK  166  A    between atoms: _388  and  _390
REMARK  167  A    between atoms: _390  and  _391
REMARK  168  A    between atoms: _393  and  _395
REMARK  169  A    between atoms: _395  and  _396
REMARK  170  A    between atoms: _395  and  _398
REMARK  171  A    between atoms: _398  and  _399
REMARK  172  A    between atoms: _405  and  _407
REMARK  173  A    between atoms: _407  and  _408
REMARK  174  A    between atoms: _410  and  _412
REMARK  175  A    between atoms: _412  and  _413
REMARK  176  A    between atoms: _412  and  _415
REMARK  177  A    between atoms: _415  and  _416
REMARK  178  A    between atoms: _419  and  _421
REMARK  179  A    between atoms: _421  and  _422
REMARK  180  A    between atoms: _421  and  _424
REMARK  181  A    between atoms: _424  and  _425
REMARK  182  A    between atoms: _428  and  _430
REMARK  183  A    between atoms: _430  and  _431
REMARK  184  A    between atoms: _430  and  _433
REMARK  185  A    between atoms: _436  and  _438
REMARK  186  A    between atoms: _438  and  _439
REMARK  187  A    between atoms: _438  and  _441
REMARK  188  A    between atoms: _441  and  _442
REMARK  189  A    between atoms: _445  and  _447
REMARK  190  A    between atoms: _447  and  _448
REMARK  191  A    between atoms: _447  and  _450
REMARK  192  A    between atoms: _450  and  _451
REMARK  193  A    between atoms: _453  and  _455
REMARK  194  A    between atoms: _455  and  _456
REMARK  195  A    between atoms: _455  and  _458
REMARK  196  A    between atoms: _458  and  _459
REMARK  197  A    between atoms: _459  and  _460
REMARK  198  A    between atoms: _460  and  _461
REMARK  199  A    between atoms: _461  and  _462
REMARK  200  A    between atoms: _466  and  _468
REMARK  201  A    between atoms: _468  and  _469
REMARK  202  A    between atoms: _471  and  _473
REMARK  203  A    between atoms: _473  and  _474
REMARK  204  A    between atoms: _477  and  _479
REMARK  205  A    between atoms: _479  and  _480
REMARK  206  A    between atoms: _479  and  _482
REMARK  207  A    between atoms: _483  and  _484
REMARK  208  A    between atoms: _487  and  _489
REMARK  209  A    between atoms: _489  and  _490
REMARK  210  A    between atoms: _489  and  _492
REMARK  211  A    between atoms: _492  and  _493
REMARK  212  A    between atoms: _493  and  _494
REMARK  213  A    between atoms: _494  and  _495
REMARK  214  A    between atoms: _504  and  _506
REMARK  215  A    between atoms: _506  and  _507
REMARK  216  A    between atoms: _510  and  _512
REMARK  217  A    between atoms: _512  and  _513
REMARK  218  A    between atoms: _512  and  _515
REMARK  219  A    between atoms: _515  and  _516
REMARK  220  A    between atoms: _519  and  _521
REMARK  221  A    between atoms: _521  and  _522
REMARK  222  A    between atoms: _521  and  _524
REMARK  223  A    between atoms: _524  and  _525
REMARK  224  A    between atoms: _528  and  _530
REMARK  225  A    between atoms: _530  and  _531
REMARK  226  A    between atoms: _530  and  _533
REMARK  227  A    between atoms: _533  and  _534
REMARK  228  A    between atoms: _537  and  _539
REMARK  229  A    between atoms: _539  and  _540
REMARK  230  A    between atoms: _539  and  _542
REMARK  231  A    between atoms: _542  and  _543
REMARK  232  A    between atoms: _543  and  _544
REMARK  233  A    between atoms: _544  and  _545
REMARK  234  A    between atoms: _545  and  _546
REMARK  235  A    between atoms: _550  and  _552
REMARK  236  A    between atoms: _552  and  _553
REMARK  237  A    between atoms: _552  and  _555
REMARK  238  A    between atoms: _555  and  _556
REMARK  239  A    between atoms: _559  and  _561
REMARK  240  A    between atoms: _561  and  _562
REMARK  241  A    between atoms: _561  and  _564
REMARK  242  A    between atoms: _564  and  _565
REMARK  243  A    between atoms: _565  and  _566
REMARK  244  A    between atoms: _569  and  _570
REMARK  245  A    between atoms: _575  and  _577
REMARK  246  A    between atoms: _577  and  _578
REMARK  247  A    between atoms: _577  and  _580
REMARK  248  A    between atoms: _580  and  _581
REMARK  249  A    between atoms: _584  and  _586
REMARK  250  A    between atoms: _586  and  _587
REMARK  251  A    between atoms: _586  and  _589
REMARK  252  A    between atoms: _589  and  _590
REMARK  253  A    between atoms: _593  and  _595
REMARK  254  A    between atoms: _595  and  _596
REMARK  255  A    between atoms: _595  and  _598
REMARK  256  A    between atoms: _598  and  _599
REMARK  257  A    between atoms: _599  and  _600
REMARK  258  A    between atoms: _600  and  _601
REMARK  259  A    between atoms: _610  and  _612
REMARK  260  A    between atoms: _612  and  _613
REMARK  261  A    between atoms: _612  and  _615
REMARK  262  A    between atoms: _615  and  _616
REMARK  263  A    between atoms: _616  and  _617
REMARK  264  A    between atoms: _619  and  _621
REMARK  265  A    between atoms: _621  and  _622
REMARK  266  A    between atoms: _621  and  _624
REMARK  267  A    between atoms: _624  and  _625
REMARK                            x       y       z     vdW  Elec       q    Type
REMARK                         _______ _______ _______ _____ _____    ______ ____
ROOT
ATOM      1  CA  ARG A   5      47.301  10.385  77.359  0.00  0.00    +0.149 C 
ENDROOT
BRANCH   1   2
ATOM      2  C   ARG A   5      47.735  11.839  77.492  0.00  0.00    +0.241 C 
ATOM      3  N   ALA A   6      48.110  12.275  78.709  0.00  0.00    -0.297 N 
ATOM      4  H   ALA A   6      48.073  11.626  79.521  0.00  0.00    +0.150 HD
ATOM      5  O   ARG A   5      47.725  12.567  76.491  0.00  0.00    -0.273 OA
BRANCH   3   6
ATOM      6  CA  ALA A   6      48.572  13.658  78.906  0.00  0.00    +0.149 C 
ATOM      7  CB  ALA A   6      48.818  13.973  80.361  0.00  0.00    +0.031 C 
BRANCH   6   8
ATOM      8  C   ALA A   6      49.790  13.908  78.002  0.00  0.00    +0.241 C 
ATOM      9  N   ILE A   7      50.704  12.993  77.853  0.00  0.00    -0.297 N 
ATOM     10  H   ILE A   7      50.596  12.096  78.368  0.00  0.00    +0.150 HD
ATOM     11  O   ALA A   6      49.889  14.975  77.418  0.00  0.00    -0.273 OA
BRANCH   9  12
ATOM     12  CA  ILE A   7      51.869  13.167  77.000  0.00  0.00    +0.149 C 
BRANCH  12  13
ATOM     13  C   ILE A   7      51.487  13.401  75.546  0.00  0.00    +0.241 C 
ATOM     14  N   THR A   8      50.526  12.625  75.021  0.00  0.00    -0.295 N 
ATOM     15  H   THR A   8      50.072  11.885  75.594  0.00  0.00    +0.150 HD
ATOM     16  O   ILE A   7      52.039  14.293  74.851  0.00  0.00    -0.273 OA
BRANCH  14  17
ATOM     17  CA  THR A   8      50.126  12.839  73.620  0.00  0.00    +0.176 C 
BRANCH  17  18
ATOM     18  C   THR A   8      49.270  14.080  73.452  0.00  0.00    +0.243 C 
ATOM     19  N   LEU A   9      48.472  14.424  74.447  0.00  0.00    -0.297 N 
ATOM     20  H   LEU A   9      48.481  13.849  75.313  0.00  0.00    +0.150 HD
ATOM     21  O   THR A   8      49.371  14.777  72.433  0.00  0.00    -0.273 OA
BRANCH  19  22
ATOM     22  CA  LEU A   9      47.578  15.577  74.383  0.00  0.00    +0.149 C 
BRANCH  22  23
ATOM     23  C   LEU A   9      48.410  16.836  74.300  0.00  0.00    +0.241 C 
ATOM     24  N   LYS A  10      49.567  16.796  74.976  0.00  0.00    -0.298 N 
ATOM     25  H   LYS A  10      49.865  15.930  75.469  0.00  0.00    +0.150 HD
ATOM     26  O   LEU A   9      48.035  17.822  73.657  0.00  0.00    -0.273 OA
BRANCH  24  27
ATOM     27  CA  LYS A  10      50.401  17.996  75.005  0.00  0.00    +0.137 C 
BRANCH  27  28
ATOM     28  C   LYS A  10      50.808  18.372  73.576  0.00  0.00    +0.227 C 
ATOM     29  O   LYS A  10      51.042  19.544  73.281  0.00  0.00    -0.286 OA
ENDBRANCH  27  28
BRANCH  27  30
ATOM     30  CB  LYS A  10      51.675  17.842  75.831  0.00  0.00    +0.028 C 
BRANCH  30  31
ATOM     31  CG  LYS A  10      51.511  17.433  77.288  0.00  0.00    -0.000 C 
BRANCH  31  32
ATOM     32  CD  LYS A  10      52.821  16.823  77.767  0.00  0.00    -0.024 C 
BRANCH  32  33
ATOM     33  CE  LYS A  10      52.863  16.595  79.249  0.00  0.00    -0.086 C 
BRANCH  33  34
ATOM     34  NZ  LYS A  10      51.825  15.694  79.774  0.00  0.00    +0.380 N 
ATOM     35  HZ1 LYS A  10      51.937  15.600  80.804  0.00  0.00    -0.089 HD
ATOM     36  HZ2 LYS A  10      50.886  16.087  79.561  0.00  0.00    -0.089 HD
ATOM     37  HZ3 LYS A  10      51.920  14.760  79.327  0.00  0.00    -0.089 HD
ENDBRANCH  33  34
ENDBRANCH  32  33
ENDBRANCH  31  32
ENDBRANCH  30  31
ENDBRANCH  27  30
ENDBRANCH  24  27
ENDBRANCH  22  23
BRANCH  22  38
ATOM     38  CB  LEU A   9      46.611  15.453  75.556  0.00  0.00    +0.029 C 
BRANCH  38  39
ATOM     39  CG  LEU A   9      45.529  16.487  75.735  0.00  0.00    +0.002 C 
ATOM     40  CD2 LEU A   9      44.767  16.149  77.008  0.00  0.00    +0.000 C 
ATOM     41  CD1 LEU A   9      44.602  16.581  74.554  0.00  0.00    +0.000 C 
ENDBRANCH  38  39
ENDBRANCH  22  38
ENDBRANCH  19  22
ENDBRANCH  17  18
BRANCH  17  42
ATOM     42  CB  THR A   8      49.399  11.615  73.006  0.00  0.00    +0.137 C 
ATOM     43  CG2 THR A   8      50.413  10.481  72.922  0.00  0.00    +0.034 C 
BRANCH  42  44
ATOM     44  OG1 THR A   8      48.256  11.219  73.805  0.00  0.00    -0.382 OA
ATOM     45  HG1 THR A   8      47.817  10.437  73.386  0.00  0.00    +0.210 HD
ENDBRANCH  42  44
ENDBRANCH  17  42
ENDBRANCH  14  17
ENDBRANCH  12  13
BRANCH  12  46
ATOM     46  CB  ILE A   7      52.769  11.925  77.103  0.00  0.00    +0.027 C 
ATOM     47  CG2 ILE A   7      53.840  11.967  76.053  0.00  0.00    +0.002 C 
BRANCH  46  48
ATOM     48  CG1 ILE A   7      53.405  11.758  78.477  0.00  0.00    +0.002 C 
ATOM     49  CD1 ILE A   7      54.163  10.453  78.622  0.00  0.00    +0.000 C 
ENDBRANCH  46  48
ENDBRANCH  12  46
ENDBRANCH   9  12
ENDBRANCH   6   8
ENDBRANCH   3   6
ENDBRANCH   1   2
BRANCH   1  51
ATOM     50  C   GLU A   4      49.419   9.368  78.061  0.00  0.00    +0.245 C 
ATOM     51  N   ARG A   5      48.103   9.522  78.237  0.00  0.00    -0.297 N 
ATOM     52  H   ARG A   5      47.634   9.017  79.016  0.00  0.00    +0.150 HD
ATOM     53  O   GLU A   4      50.009   9.925  77.109  0.00  0.00    -0.273 OA
BRANCH  50  54
ATOM     54  CA  GLU A   4      50.169   8.507  79.074  0.00  0.00    +0.172 C 
BRANCH  54  56
ATOM     55  C   ALA A   3      49.803   9.930  81.008  0.00  0.00    +0.241 C 
ATOM     56  N   GLU A   4      49.659   8.730  80.433  0.00  0.00    -0.294 N 
ATOM     57  H   GLU A   4      49.188   7.958  80.947  0.00  0.00    +0.150 HD
ATOM     58  O   ALA A   3      50.411  10.818  80.429  0.00  0.00    -0.273 OA
BRANCH  55  59
ATOM     59  CA  ALA A   3      49.178  10.132  82.392  0.00  0.00    +0.149 C 
ATOM     60  CB  ALA A   3      50.135   9.633  83.460  0.00  0.00    +0.031 C 
BRANCH  59  62
ATOM     61  C   GLY A   2      46.879   9.852  81.730  0.00  0.00    +0.243 C 
ATOM     62  N   ALA A   3      47.883   9.448  82.487  0.00  0.00    -0.297 N 
ATOM     63  H   ALA A   3      47.757   8.652  83.145  0.00  0.00    +0.150 HD
ATOM     64  O   GLY A   2      46.940  10.814  80.934  0.00  0.00    -0.273 OA
BRANCH  61  65
ATOM     65  CA  GLY A   2      45.610   9.054  81.792  0.00  0.00    +0.176 C 
BRANCH  65  67
ATOM     66  C   LYS A   1      46.445   6.925  80.922  0.00  0.00    +0.238 C 
ATOM     67  N   GLY A   2      45.847   7.606  81.895  0.00  0.00    -0.296 N 
ATOM     68  H   GLY A   2      45.539   7.102  82.751  0.00  0.00    +0.150 HD
ATOM     69  O   LYS A   1      46.740   7.534  79.893  0.00  0.00    -0.274 OA
BRANCH  66  70
ATOM     70  CA  LYS A   1      46.750   5.447  81.127  0.00  0.00    +0.145 C 
BRANCH  70  71
ATOM     71  N   LYS A   1      47.140   5.179  82.519  0.00  0.00    -0.238 NA
ATOM     72  H   LYS A   1      46.539   4.557  83.096  0.00  0.00    +0.142 HD
ENDBRANCH  70  71
BRANCH  70  73
ATOM     73  CB  LYS A   1      45.543   4.593  80.708  0.00  0.00    +0.026 C 
BRANCH  73  74
ATOM     74  CG  LYS A   1      45.929   3.114  80.572  0.00  0.00    -0.000 C 
BRANCH  74  75
ATOM     75  CD  LYS A   1      44.737   2.215  80.363  0.00  0.00    -0.024 C 
BRANCH  75  76
ATOM     76  CE  LYS A   1      45.062   0.742  80.362  0.00  0.00    -0.086 C 
BRANCH  76  77
ATOM     77  NZ  LYS A   1      45.808   0.499  79.113  0.00  0.00    +0.380 N 
ATOM     78  HZ1 LYS A   1      46.672   1.078  79.109  0.00  0.00    -0.089 HD
ATOM     79  HZ2 LYS A   1      46.063  -0.507  79.053  0.00  0.00    -0.089 HD
ATOM     80  HZ3 LYS A   1      45.213   0.756  78.300  0.00  0.00    -0.089 HD
ENDBRANCH  76  77
ENDBRANCH  75  76
ENDBRANCH  74  75
ENDBRANCH  73  74
ENDBRANCH  70  73
ENDBRANCH  66  70
ENDBRANCH  65  67
ENDBRANCH  61  65
ENDBRANCH  59  62
ENDBRANCH  55  59
ENDBRANCH  54  56
BRANCH  54  81
ATOM     81  CB  GLU A   4      50.074   7.032  78.729  0.00  0.00    +0.009 C 
ATOM     82  CG  GLU A   4      50.724   6.059  79.663  0.00  0.00    +0.084 C 
BRANCH  82  83
ATOM     83  CD  GLU A   4      50.541   4.575  79.377  0.00  0.00    +0.388 C 
ATOM     84  OE2 GLU A   4      51.402   3.762  79.821  0.00  0.00    -0.241 OA
ATOM     85  OE1 GLU A   4      49.545   4.204  78.712  0.00  0.00    -0.241 OA
ENDBRANCH  82  83
ENDBRANCH  54  81
ENDBRANCH  50  54
ENDBRANCH   1  51
BRANCH   1  86
ATOM     86  CB  ARG A   5      45.814  10.237  77.657  0.00  0.00    +0.033 C 
BRANCH  86  87
ATOM     87  CG  ARG A   5      44.896  11.237  76.931  0.00  0.00    +0.045 C 
BRANCH  87  88
ATOM     88  CD  ARG A   5      45.051  11.094  75.439  0.00  0.00    +0.174 C 
BRANCH  88  89
ATOM     89  NE  ARG A   5      44.233  12.038  74.708  0.00  0.00    -0.265 N 
ATOM     90  HE  ARG A   5      43.300  12.251  75.114  0.00  0.00    +0.259 HD
ATOM     91  CZ  ARG A   5      44.541  12.667  73.570  0.00  0.00    +0.342 C 
ATOM     92  NH2 ARG A   5      43.667  13.496  73.010  0.00  0.00    -0.292 N 
ATOM     93 HH21 ARG A   5      42.742  13.656  73.457  0.00  0.00    +0.255 HD
ATOM     94 HH22 ARG A   5      43.908  13.985  72.124  0.00  0.00    +0.255 HD
ATOM     95  NH1 ARG A   5      45.730  12.493  72.979  0.00  0.00    -0.292 N 
ATOM     96 HH11 ARG A   5      46.435  11.858  73.406  0.00  0.00    +0.255 HD
ATOM     97 HH12 ARG A   5      45.949  12.993  72.093  0.00  0.00    +0.255 HD
ENDBRANCH  88  89
ENDBRANCH  87  88
ENDBRANCH  86  87
ENDBRANCH   1  86
TORSDOF 42
REMARK  Name = ../refined-set-2016/1fd0/1fd0_pocket.pdb
REMARK  267 active torsions:
REMARK  status: ('A' for Active; 'I' for Inactive)
REMARK    1  A    between atoms: _1  and  _3
REMARK    2  A    between atoms: _3  and  _4
REMARK    3  A    between atoms: _3  and  _6
REMARK    4  A    between atoms: _6  and  _7
REMARK    5  A    between atoms: _10  and  _12
REMARK    6  A    between atoms: _12  and  _13
REMARK    7  A    between atoms: _12  and  _15
REMARK    8  A    between atoms: _15  and  _16
REMARK    9  A    between atoms: _23  and  _24
REMARK   10  A    between atoms: _29  and  _31
REMARK   11  A    between atoms: _31  and  _32
REMARK   12  A    between atoms: _31  and  _34
REMARK   13  A    between atoms: _34  and  _35
REMARK   14  A    between atoms: _38  and  _40
REMARK   15  A    between atoms: _40  and  _41
REMARK   16  A    between atoms: _40  and  _43
REMARK   17  A    between atoms: _43  and  _44
REMARK   18  A    between atoms: _47  and  _49
REMARK   19  A    between atoms: _49  and  _50
REMARK   20  A    between atoms: _49  and  _52
REMARK   21  A    between atoms: _52  and  _53
REMARK   22  A    between atoms: _63  and  _65
REMARK   23  A    between atoms: _65  and  _66
REMARK   24  A    between atoms: _65  and  _68
REMARK   25  A    between atoms: _68  and  _69
REMARK   26  A    between atoms: _69  and  _70
REMARK   27  A    between atoms: _70  and  _71
REMARK   28  A    between atoms: _71  and  _72
REMARK   29  A    between atoms: _76  and  _78
REMARK   30  A    between atoms: _78  and  _79
REMARK   31  A    between atoms: _78  and  _81
REMARK   32  A    between atoms: _81  and  _82
REMARK   33  A    between atoms: _88  and  _90
REMARK   34  A    between atoms: _90  and  _91
REMARK   35  A    between atoms: _90  and  _93
REMARK   36  A    between atoms: _93  and  _94
REMARK   37  A    between atoms: _96  and  _98
REMARK   38  A    between atoms: _98  and  _99
REMARK   39  A    between atoms: _98  and  _101
REMARK   40  A    between atoms: _101  and  _102
REMARK   41  A    between atoms: _102  and  _103
REMARK   42  A    between atoms: _106  and  _108
REMARK   43  A    between atoms: _108  and  _109
REMARK   44  A    between atoms: _108  and  _111
REMARK   45  A    between atoms: _111  and  _112
REMARK   46  A    between atoms: _115  and  _117
REMARK   47  A    between atoms: _117  and  _118
REMARK   48  A    between atoms: _121  and  _123
REMARK   49  A    between atoms: _123  and  _124
REMARK   50  A    between atoms: _123  and  _126
REMARK   51  A    between atoms: _126  and  _127
REMARK   52  A    between atoms: _130  and  _132
REMARK   53  A    between atoms: _132  and  _133
REMARK   54  A    between atoms: _132  and  _135
REMARK   55  A    between atoms: _135  and  _136
REMARK   56  A    between atoms: _136  and  _137
REMARK   57  A    between atoms: _137  and  _138
REMARK   58  A    between atoms: _138  and  _139
REMARK   59  A    between atoms: _143  and  _145
REMARK   60  A    between atoms: _145  and  _146
REMARK   61  A    between atoms: _145  and  _148
REMARK   62  A    between atoms: _150  and  _152
REMARK   63  A    between atoms: _152  and  _153
REMARK   64  A    between atoms: _152  and  _155
REMARK   65  A    between atoms: _155  and  _156
REMARK   66  A    between atoms: _159  and  _161
REMARK   67  A    between atoms: _161  and  _162
REMARK   68  A    between atoms: _161  and  _164
REMARK   69  A    between atoms: _164  and  _165
REMARK   70  A    between atoms: _165  and  _166
REMARK   71  A    between atoms: _166  and  _167
REMARK   72  A    between atoms: _167  and  _168
REMARK   73  A    between atoms: _172  and  _174
REMARK   74  A    between atoms: _174  and  _175
REMARK   75  A    between atoms: _174  and  _177
REMARK   76  A    between atoms: _177  and  _178
REMARK   77  A    between atoms: _181  and  _183
REMARK   78  A    between atoms: _183  and  _184
REMARK   79  A    between atoms: _183  and  _186
REMARK   80  A    between atoms: _188  and  _190
REMARK   81  A    between atoms: _190  and  _191
REMARK   82  A    between atoms: _190  and  _193
REMARK   83  A    between atoms: _193  and  _194
REMARK   84  A    between atoms: _197  and  _199
REMARK   85  A    between atoms: _199  and  _200
REMARK   86  A    between atoms: _199  and  _202
REMARK   87  A    between atoms: _202  and  _203
REMARK   88  A    between atoms: _206  and  _208
REMARK   89  A    between atoms: _208  and  _209
REMARK   90  A    between atoms: _208  and  _211
REMARK   91  A    between atoms: _211  and  _212
REMARK   92  A    between atoms: _215  and  _217
REMARK   93  A    between atoms: _217  and  _218
REMARK   94  A    between atoms: _217  and  _220
REMARK   95  A    between atoms: _220  and  _221
REMARK   96  A    between atoms: _224  and  _226
REMARK   97  A    between atoms: _226  and  _227
REMARK   98  A    between atoms: _226  and  _229
REMARK   99  A    between atoms: _229  and  _230
REMARK  100  A    between atoms: _230  and  _231
REMARK  101  A    between atoms: _233  and  _235
REMARK  102  A    between atoms: _235  and  _236
REMARK  103  A    between atoms: _235  and  _238
REMARK  104  A    between atoms: _238  and  _239
REMARK  105  A    between atoms: _242  and  _244
REMARK  106  A    between atoms: _244  and  _245
REMARK  107  A    between atoms: _244  and  _247
REMARK  108  A    between atoms: _247  and  _248
REMARK  109  A    between atoms: _248  and  _249
REMARK  110  A    between atoms: _249  and  _250
REMARK  111  A    between atoms: _259  and  _261
REMARK  112  A    between atoms: _261  and  _262
REMARK  113  A    between atoms: _261  and  _264
REMARK  114  A    between atoms: _264  and  _265
REMARK  115  A    between atoms: _268  and  _270
REMARK  116  A    between atoms: _270  and  _271
REMARK  117  A    between atoms: _270  and  _273
REMARK  118  A    between atoms: _275  and  _277
REMARK  119  A    between atoms: _277  and  _278
REMARK  120  A    between atoms: _277  and  _280
REMARK  121  A    between atoms: _280  and  _281
REMARK  122  A    between atoms: _284  and  _286
REMARK  123  A    between atoms: _286  and  _287
REMARK  124  A    between atoms: _286  and  _289
REMARK  125  A    between atoms: _289  and  _290
REMARK  126  A    between atoms: _290  and  _291
REMARK  127  A    between atoms: _291  and  _292
REMARK  128  A    between atoms: _301  and  _303
REMARK  129  A    between atoms: _303  and  _304
REMARK  130  A    between atoms: _303  and  _306
REMARK  131  A    between atoms: _306  and  _307
REMARK  132  A    between atoms: _307  and  _308
REMARK  133  A    between atoms: _310  and  _312
REMARK  134  A    between atoms: _312  and  _313
REMARK  135  A    between atoms: _312  and  _315
REMARK  136  A    between atoms: _315  and  _316
REMARK  137  A    between atoms: _319  and  _321
REMARK  138  A    between atoms: _321  and  _322
REMARK  139  A    between atoms: _321  and  _324
REMARK  140  A    between atoms: _324  and  _325
REMARK  141  A    between atoms: _331  and  _333
REMARK  142  A    between atoms: _333  and  _334
REMARK  143  A    between atoms: _333  and  _336
REMARK  144  A    between atoms: _336  and  _337
REMARK  145  A    between atoms: _339  and  _341
REMARK  146  A    between atoms: _341  and  _342
REMARK  147  A    between atoms: _341  and  _344
REMARK  148  A    between atoms: _344  and  _345
REMARK  149  A    between atoms: _348  and  _350
REMARK  150  A    between atoms: _350  and  _351
REMARK  151  A    between atoms: _353  and  _355
REMARK  152  A    between atoms: _355  and  _356
REMARK  153  A    between atoms: _355  and  _358
REMARK  154  A    between atoms: _358  and  _359
REMARK  155  A    between atoms: _362  and  _364
REMARK  156  A    between atoms: _364  and  _365
REMARK  157  A    between atoms: _364  and  _367
REMARK  158  A    between atoms: _367  and  _368
REMARK  159  A    between atoms: _368  and  _369
REMARK  160  A    between atoms: _371  and  _373
REMARK  161  A    between atoms: _373  and  _374
REMARK  162  A    between atoms: _373  and  _376
REMARK  163  A    between atoms: _376  and  _377
REMARK  164  A    between atoms: _382  and  _384
REMARK  165  A    between atoms: _384  and  _385
REMARK  166  A    between atoms: _388  and  _390
REMARK  167  A    between atoms: _390  and  _391
REMARK  168  A    between atoms: _393  and  _395
REMARK  169  A    between atoms: _395  and  _396
REMARK  170  A    between atoms: _395  and  _398
REMARK  171  A    between atoms: _398  and  _399
REMARK  172  A    between atoms: _405  and  _407
REMARK  173  A    between atoms: _407  and  _408
REMARK  174  A    between atoms: _410  and  _412
REMARK  175  A    between atoms: _412  and  _413
REMARK  176  A    between atoms: _412  and  _415
REMARK  177  A    between atoms: _415  and  _416
REMARK  178  A    between atoms: _419  and  _421
REMARK  179  A    between atoms: _421  and  _422
REMARK  180  A    between atoms: _421  and  _424
REMARK  181  A    between atoms: _424  and  _425
REMARK  182  A    between atoms: _428  and  _430
REMARK  183  A    between atoms: _430  and  _431
REMARK  184  A    between atoms: _430  and  _433
REMARK  185  A    between atoms: _436  and  _438
REMARK  186  A    between atoms: _438  and  _439
REMARK  187  A    between atoms: _438  and  _441
REMARK  188  A    between atoms: _441  and  _442
REMARK  189  A    between atoms: _445  and  _447
REMARK  190  A    between atoms: _447  and  _448
REMARK  191  A    between atoms: _447  and  _450
REMARK  192  A    between atoms: _450  and  _451
REMARK  193  A    between atoms: _453  and  _455
REMARK  194  A    between atoms: _455  and  _456
REMARK  195  A    between atoms: _455  and  _458
REMARK  196  A    between atoms: _458  and  _459
REMARK  197  A    between atoms: _459  and  _460
REMARK  198  A    between atoms: _460  and  _461
REMARK  199  A    between atoms: _461  and  _462
REMARK  200  A    between atoms: _466  and  _468
REMARK  201  A    between atoms: _468  and  _469
REMARK  202  A    between atoms: _471  and  _473
REMARK  203  A    between atoms: _473  and  _474
REMARK  204  A    between atoms: _477  and  _479
REMARK  205  A    between atoms: _479  and  _480
REMARK  206  A    between atoms: _479  and  _482
REMARK  207  A    between atoms: _483  and  _484
REMARK  208  A    between atoms: _487  and  _489
REMARK  209  A    between atoms: _489  and  _490
REMARK  210  A    between atoms: _489  and  _492
REMARK  211  A    between atoms: _492  and  _493
REMARK  212  A    between atoms: _493  and  _494
REMARK  213  A    between atoms: _494  and  _495
REMARK  214  A    between atoms: _504  and  _506
REMARK  215  A    between atoms: _506  and  _507
REMARK  216  A    between atoms: _510  and  _512
REMARK  217  A    between atoms: _512  and  _513
REMARK  218  A    between atoms: _512  and  _515
REMARK  219  A    between atoms: _515  and  _516
REMARK  220  A    between atoms: _519  and  _521
REMARK  221  A    between atoms: _521  and  _522
REMARK  222  A    between atoms: _521  and  _524
REMARK  223  A    between atoms: _524  and  _525
REMARK  224  A    between atoms: _528  and  _530
REMARK  225  A    between atoms: _530  and  _531
REMARK  226  A    between atoms: _530  and  _533
REMARK  227  A    between atoms: _533  and  _534
REMARK  228  A    between atoms: _537  and  _539
REMARK  229  A    between atoms: _539  and  _540
REMARK  230  A    between atoms: _539  and  _542
REMARK  231  A    between atoms: _542  and  _543
REMARK  232  A    between atoms: _543  and  _544
REMARK  233  A    between atoms: _544  and  _545
REMARK  234  A    between atoms: _545  and  _546
REMARK  235  A    between atoms: _550  and  _552
REMARK  236  A    between atoms: _552  and  _553
REMARK  237  A    between atoms: _552  and  _555
REMARK  238  A    between atoms: _555  and  _556
REMARK  239  A    between atoms: _559  and  _561
REMARK  240  A    between atoms: _561  and  _562
REMARK  241  A    between atoms: _561  and  _564
REMARK  242  A    between atoms: _564  and  _565
REMARK  243  A    between atoms: _565  and  _566
REMARK  244  A    between atoms: _569  and  _570
REMARK  245  A    between atoms: _575  and  _577
REMARK  246  A    between atoms: _577  and  _578
REMARK  247  A    between atoms: _577  and  _580
REMARK  248  A    between atoms: _580  and  _581
REMARK  249  A    between atoms: _584  and  _586
REMARK  250  A    between atoms: _586  and  _587
REMARK  251  A    between atoms: _586  and  _589
REMARK  252  A    between atoms: _589  and  _590
REMARK  253  A    between atoms: _593  and  _595
REMARK  254  A    between atoms: _595  and  _596
REMARK  255  A    between atoms: _595  and  _598
REMARK  256  A    between atoms: _598  and  _599
REMARK  257  A    between atoms: _599  and  _600
REMARK  258  A    between atoms: _600  and  _601
REMARK  259  A    between atoms: _610  and  _612
REMARK  260  A    between atoms: _612  and  _613
REMARK  261  A    between atoms: _612  and  _615
REMARK  262  A    between atoms: _615  and  _616
REMARK  263  A    between atoms: _616  and  _617
REMARK  264  A    between atoms: _619  and  _621
REMARK  265  A    between atoms: _621  and  _622
REMARK  266  A    between atoms: _621  and  _624
REMARK  267  A    between atoms: _624  and  _625
REMARK                            x       y       z     vdW  Elec       q    Type
REMARK                         _______ _______ _______ _____ _____    ______ ____
ROOT
ATOM      1  CA  ILE A   1      47.113  21.772  72.383  0.00  0.00    +0.133 C 
ENDROOT
BRANCH   1   2
ATOM      2  N   ILE A   1      47.682  20.498  71.909  0.00  0.00    -0.239 NA
ATOM      3  H   ILE A   1      48.449  20.025  72.428  0.00  0.00    +0.142 HD
ENDBRANCH   1   2
BRANCH   1   4
ATOM      4  CB  ILE A   1      46.881  21.658  73.900  0.00  0.00    +0.023 C 
ATOM      5  CG2 ILE A   1      45.844  20.554  74.095  0.00  0.00    +0.002 C 
BRANCH   4   6
ATOM      6  CG1 ILE A   1      48.149  21.398  74.671  0.00  0.00    +0.002 C 
ATOM      7  CD1 ILE A   1      48.008  21.363  76.184  0.00  0.00    +0.000 C 
ENDBRANCH   4   6
ENDBRANCH   1   4
BRANCH   1   8
ATOM      8  C   ILE A   1      48.020  22.927  72.047  0.00  0.00    +0.224 C 
ATOM      9  O   ILE A   1      49.224  22.699  71.966  0.00  0.00    -0.287 OA
ENDBRANCH   1   8
TORSDOF 4
REMARK  Name = ../refined-set-2016/1fd0/1fd0_pocket.pdb
REMARK  267 active torsions:
REMARK  status: ('A' for Active; 'I' for Inactive)
REMARK    1  A    between atoms: _1  and  _3
REMARK    2  A    between atoms: _3  and  _4
REMARK    3  A    between atoms: _3  and  _6
REMARK    4  A    between atoms: _6  and  _7
REMARK    5  A    between atoms: _10  and  _12
REMARK    6  A    between atoms: _12  and  _13
REMARK    7  A    between atoms: _12  and  _15
REMARK    8  A    between atoms: _15  and  _16
REMARK    9  A    between atoms: _23  and  _24
REMARK   10  A    between atoms: _29  and  _31
REMARK   11  A    between atoms: _31  and  _32
REMARK   12  A    between atoms: _31  and  _34
REMARK   13  A    between atoms: _34  and  _35
REMARK   14  A    between atoms: _38  and  _40
REMARK   15  A    between atoms: _40  and  _41
REMARK   16  A    between atoms: _40  and  _43
REMARK   17  A    between atoms: _43  and  _44
REMARK   18  A    between atoms: _47  and  _49
REMARK   19  A    between atoms: _49  and  _50
REMARK   20  A    between atoms: _49  and  _52
REMARK   21  A    between atoms: _52  and  _53
REMARK   22  A    between atoms: _63  and  _65
REMARK   23  A    between atoms: _65  and  _66
REMARK   24  A    between atoms: _65  and  _68
REMARK   25  A    between atoms: _68  and  _69
REMARK   26  A    between atoms: _69  and  _70
REMARK   27  A    between atoms: _70  and  _71
REMARK   28  A    between atoms: _71  and  _72
REMARK   29  A    between atoms: _76  and  _78
REMARK   30  A    between atoms: _78  and  _79
REMARK   31  A    between atoms: _78  and  _81
REMARK   32  A    between atoms: _81  and  _82
REMARK   33  A    between atoms: _88  and  _90
REMARK   34  A    between atoms: _90  and  _91
REMARK   35  A    between atoms: _90  and  _93
REMARK   36  A    between atoms: _93  and  _94
REMARK   37  A    between atoms: _96  and  _98
REMARK   38  A    between atoms: _98  and  _99
REMARK   39  A    between atoms: _98  and  _101
REMARK   40  A    between atoms: _101  and  _102
REMARK   41  A    between atoms: _102  and  _103
REMARK   42  A    between atoms: _106  and  _108
REMARK   43  A    between atoms: _108  and  _109
REMARK   44  A    between atoms: _108  and  _111
REMARK   45  A    between atoms: _111  and  _112
REMARK   46  A    between atoms: _115  and  _117
REMARK   47  A    between atoms: _117  and  _118
REMARK   48  A    between atoms: _121  and  _123
REMARK   49  A    between atoms: _123  and  _124
REMARK   50  A    between atoms: _123  and  _126
REMARK   51  A    between atoms: _126  and  _127
REMARK   52  A    between atoms: _130  and  _132
REMARK   53  A    between atoms: _132  and  _133
REMARK   54  A    between atoms: _132  and  _135
REMARK   55  A    between atoms: _135  and  _136
REMARK   56  A    between atoms: _136  and  _137
REMARK   57  A    between atoms: _137  and  _138
REMARK   58  A    between atoms: _138  and  _139
REMARK   59  A    between atoms: _143  and  _145
REMARK   60  A    between atoms: _145  and  _146
REMARK   61  A    between atoms: _145  and  _148
REMARK   62  A    between atoms: _150  and  _152
REMARK   63  A    between atoms: _152  and  _153
REMARK   64  A    between atoms: _152  and  _155
REMARK   65  A    between atoms: _155  and  _156
REMARK   66  A    between atoms: _159  and  _161
REMARK   67  A    between atoms: _161  and  _162
REMARK   68  A    between atoms: _161  and  _164
REMARK   69  A    between atoms: _164  and  _165
REMARK   70  A    between atoms: _165  and  _166
REMARK   71  A    between atoms: _166  and  _167
REMARK   72  A    between atoms: _167  and  _168
REMARK   73  A    between atoms: _172  and  _174
REMARK   74  A    between atoms: _174  and  _175
REMARK   75  A    between atoms: _174  and  _177
REMARK   76  A    between atoms: _177  and  _178
REMARK   77  A    between atoms: _181  and  _183
REMARK   78  A    between atoms: _183  and  _184
REMARK   79  A    between atoms: _183  and  _186
REMARK   80  A    between atoms: _188  and  _190
REMARK   81  A    between atoms: _190  and  _191
REMARK   82  A    between atoms: _190  and  _193
REMARK   83  A    between atoms: _193  and  _194
REMARK   84  A    between atoms: _197  and  _199
REMARK   85  A    between atoms: _199  and  _200
REMARK   86  A    between atoms: _199  and  _202
REMARK   87  A    between atoms: _202  and  _203
REMARK   88  A    between atoms: _206  and  _208
REMARK   89  A    between atoms: _208  and  _209
REMARK   90  A    between atoms: _208  and  _211
REMARK   91  A    between atoms: _211  and  _212
REMARK   92  A    between atoms: _215  and  _217
REMARK   93  A    between atoms: _217  and  _218
REMARK   94  A    between atoms: _217  and  _220
REMARK   95  A    between atoms: _220  and  _221
REMARK   96  A    between atoms: _224  and  _226
REMARK   97  A    between atoms: _226  and  _227
REMARK   98  A    between atoms: _226  and  _229
REMARK   99  A    between atoms: _229  and  _230
REMARK  100  A    between atoms: _230  and  _231
REMARK  101  A    between atoms: _233  and  _235
REMARK  102  A    between atoms: _235  and  _236
REMARK  103  A    between atoms: _235  and  _238
REMARK  104  A    between atoms: _238  and  _239
REMARK  105  A    between atoms: _242  and  _244
REMARK  106  A    between atoms: _244  and  _245
REMARK  107  A    between atoms: _244  and  _247
REMARK  108  A    between atoms: _247  and  _248
REMARK  109  A    between atoms: _248  and  _249
REMARK  110  A    between atoms: _249  and  _250
REMARK  111  A    between atoms: _259  and  _261
REMARK  112  A    between atoms: _261  and  _262
REMARK  113  A    between atoms: _261  and  _264
REMARK  114  A    between atoms: _264  and  _265
REMARK  115  A    between atoms: _268  and  _270
REMARK  116  A    between atoms: _270  and  _271
REMARK  117  A    between atoms: _270  and  _273
REMARK  118  A    between atoms: _275  and  _277
REMARK  119  A    between atoms: _277  and  _278
REMARK  120  A    between atoms: _277  and  _280
REMARK  121  A    between atoms: _280  and  _281
REMARK  122  A    between atoms: _284  and  _286
REMARK  123  A    between atoms: _286  and  _287
REMARK  124  A    between atoms: _286  and  _289
REMARK  125  A    between atoms: _289  and  _290
REMARK  126  A    between atoms: _290  and  _291
REMARK  127  A    between atoms: _291  and  _292
REMARK  128  A    between atoms: _301  and  _303
REMARK  129  A    between atoms: _303  and  _304
REMARK  130  A    between atoms: _303  and  _306
REMARK  131  A    between atoms: _306  and  _307
REMARK  132  A    between atoms: _307  and  _308
REMARK  133  A    between atoms: _310  and  _312
REMARK  134  A    between atoms: _312  and  _313
REMARK  135  A    between atoms: _312  and  _315
REMARK  136  A    between atoms: _315  and  _316
REMARK  137  A    between atoms: _319  and  _321
REMARK  138  A    between atoms: _321  and  _322
REMARK  139  A    between atoms: _321  and  _324
REMARK  140  A    between atoms: _324  and  _325
REMARK  141  A    between atoms: _331  and  _333
REMARK  142  A    between atoms: _333  and  _334
REMARK  143  A    between atoms: _333  and  _336
REMARK  144  A    between atoms: _336  and  _337
REMARK  145  A    between atoms: _339  and  _341
REMARK  146  A    between atoms: _341  and  _342
REMARK  147  A    between atoms: _341  and  _344
REMARK  148  A    between atoms: _344  and  _345
REMARK  149  A    between atoms: _348  and  _350
REMARK  150  A    between atoms: _350  and  _351
REMARK  151  A    between atoms: _353  and  _355
REMARK  152  A    between atoms: _355  and  _356
REMARK  153  A    between atoms: _355  and  _358
REMARK  154  A    between atoms: _358  and  _359
REMARK  155  A    between atoms: _362  and  _364
REMARK  156  A    between atoms: _364  and  _365
REMARK  157  A    between atoms: _364  and  _367
REMARK  158  A    between atoms: _367  and  _368
REMARK  159  A    between atoms: _368  and  _369
REMARK  160  A    between atoms: _371  and  _373
REMARK  161  A    between atoms: _373  and  _374
REMARK  162  A    between atoms: _373  and  _376
REMARK  163  A    between atoms: _376  and  _377
REMARK  164  A    between atoms: _382  and  _384
REMARK  165  A    between atoms: _384  and  _385
REMARK  166  A    between atoms: _388  and  _390
REMARK  167  A    between atoms: _390  and  _391
REMARK  168  A    between atoms: _393  and  _395
REMARK  169  A    between atoms: _395  and  _396
REMARK  170  A    between atoms: _395  and  _398
REMARK  171  A    between atoms: _398  and  _399
REMARK  172  A    between atoms: _405  and  _407
REMARK  173  A    between atoms: _407  and  _408
REMARK  174  A    between atoms: _410  and  _412
REMARK  175  A    between atoms: _412  and  _413
REMARK  176  A    between atoms: _412  and  _415
REMARK  177  A    between atoms: _415  and  _416
REMARK  178  A    between atoms: _419  and  _421
REMARK  179  A    between atoms: _421  and  _422
REMARK  180  A    between atoms: _421  and  _424
REMARK  181  A    between atoms: _424  and  _425
REMARK  182  A    between atoms: _428  and  _430
REMARK  183  A    between atoms: _430  and  _431
REMARK  184  A    between atoms: _430  and  _433
REMARK  185  A    between atoms: _436  and  _438
REMARK  186  A    between atoms: _438  and  _439
REMARK  187  A    between atoms: _438  and  _441
REMARK  188  A    between atoms: _441  and  _442
REMARK  189  A    between atoms: _445  and  _447
REMARK  190  A    between atoms: _447  and  _448
REMARK  191  A    between atoms: _447  and  _450
REMARK  192  A    between atoms: _450  and  _451
REMARK  193  A    between atoms: _453  and  _455
REMARK  194  A    between atoms: _455  and  _456
REMARK  195  A    between atoms: _455  and  _458
REMARK  196  A    between atoms: _458  and  _459
REMARK  197  A    between atoms: _459  and  _460
REMARK  198  A    between atoms: _460  and  _461
REMARK  199  A    between atoms: _461  and  _462
REMARK  200  A    between atoms: _466  and  _468
REMARK  201  A    between atoms: _468  and  _469
REMARK  202  A    between atoms: _471  and  _473
REMARK  203  A    between atoms: _473  and  _474
REMARK  204  A    between atoms: _477  and  _479
REMARK  205  A    between atoms: _479  and  _480
REMARK  206  A    between atoms: _479  and  _482
REMARK  207  A    between atoms: _483  and  _484
REMARK  208  A    between atoms: _487  and  _489
REMARK  209  A    between atoms: _489  and  _490
REMARK  210  A    between atoms: _489  and  _492
REMARK  211  A    between atoms: _492  and  _493
REMARK  212  A    between atoms: _493  and  _494
REMARK  213  A    between atoms: _494  and  _495
REMARK  214  A    between atoms: _504  and  _506
REMARK  215  A    between atoms: _506  and  _507
REMARK  216  A    between atoms: _510  and  _512
REMARK  217  A    between atoms: _512  and  _513
REMARK  218  A    between atoms: _512  and  _515
REMARK  219  A    between atoms: _515  and  _516
REMARK  220  A    between atoms: _519  and  _521
REMARK  221  A    between atoms: _521  and  _522
REMARK  222  A    between atoms: _521  and  _524
REMARK  223  A    between atoms: _524  and  _525
REMARK  224  A    between atoms: _528  and  _530
REMARK  225  A    between atoms: _530  and  _531
REMARK  226  A    between atoms: _530  and  _533
REMARK  227  A    between atoms: _533  and  _534
REMARK  228  A    between atoms: _537  and  _539
REMARK  229  A    between atoms: _539  and  _540
REMARK  230  A    between atoms: _539  and  _542
REMARK  231  A    between atoms: _542  and  _543
REMARK  232  A    between atoms: _543  and  _544
REMARK  233  A    between atoms: _544  and  _545
REMARK  234  A    between atoms: _545  and  _546
REMARK  235  A    between atoms: _550  and  _552
REMARK  236  A    between atoms: _552  and  _553
REMARK  237  A    between atoms: _552  and  _555
REMARK  238  A    between atoms: _555  and  _556
REMARK  239  A    between atoms: _559  and  _561
REMARK  240  A    between atoms: _561  and  _562
REMARK  241  A    between atoms: _561  and  _564
REMARK  242  A    between atoms: _564  and  _565
REMARK  243  A    between atoms: _565  and  _566
REMARK  244  A    between atoms: _569  and  _570
REMARK  245  A    between atoms: _575  and  _577
REMARK  246  A    between atoms: _577  and  _578
REMARK  247  A    between atoms: _577  and  _580
REMARK  248  A    between atoms: _580  and  _581
REMARK  249  A    between atoms: _584  and  _586
REMARK  250  A    between atoms: _586  and  _587
REMARK  251  A    between atoms: _586  and  _589
REMARK  252  A    between atoms: _589  and  _590
REMARK  253  A    between atoms: _593  and  _595
REMARK  254  A    between atoms: _595  and  _596
REMARK  255  A    between atoms: _595  and  _598
REMARK  256  A    between atoms: _598  and  _599
REMARK  257  A    between atoms: _599  and  _600
REMARK  258  A    between atoms: _600  and  _601
REMARK  259  A    between atoms: _610  and  _612
REMARK  260  A    between atoms: _612  and  _613
REMARK  261  A    between atoms: _612  and  _615
REMARK  262  A    between atoms: _615  and  _616
REMARK  263  A    between atoms: _616  and  _617
REMARK  264  A    between atoms: _619  and  _621
REMARK  265  A    between atoms: _621  and  _622
REMARK  266  A    between atoms: _621  and  _624
REMARK  267  A    between atoms: _624  and  _625
REMARK                            x       y       z     vdW  Elec       q    Type
REMARK                         _______ _______ _______ _____ _____    ______ ____
ROOT
ATOM      1  C   MET A   1      48.820  23.519  81.489  0.00  0.00    +0.241 C 
ATOM      2  N   PRO A   2      47.648  23.680  82.092  0.00  0.00    -0.273 N 
ATOM      3  CA  PRO A   2      47.597  24.514  83.308  0.00  0.00    +0.140 C 
ATOM      4  CB  PRO A   2      46.157  24.354  83.749  0.00  0.00    +0.030 C 
ATOM      5  CG  PRO A   2      45.424  24.137  82.429  0.00  0.00    +0.024 C 
ATOM      6  CD  PRO A   2      46.319  23.217  81.643  0.00  0.00    +0.094 C 
ATOM      7  O   MET A   1      49.836  24.073  81.871  0.00  0.00    -0.273 OA
ENDROOT
BRANCH   3   8
ATOM      8  C   PRO A   2      48.558  24.024  84.389  0.00  0.00    +0.227 C 
ATOM      9  O   PRO A   2      48.842  22.846  84.524  0.00  0.00    -0.286 OA
ENDBRANCH   3   8
BRANCH   1  10
ATOM     10  CA  MET A   1      48.825  22.606  80.278  0.00  0.00    +0.146 C 
BRANCH  10  11
ATOM     11  N   MET A   1      49.945  22.930  79.434  0.00  0.00    -0.238 NA
ATOM     12  H   MET A   1      50.750  22.278  79.340  0.00  0.00    +0.142 HD
ENDBRANCH  10  11
BRANCH  10  13
ATOM     13  CB  MET A   1      48.913  21.137  80.734  0.00  0.00    +0.038 C 
BRANCH  13  14
ATOM     14  CG  MET A   1      48.416  20.198  79.682  0.00  0.00    +0.060 C 
BRANCH  14  15
ATOM     15  SD  MET A   1      48.383  18.486  80.121  0.00  0.00    -0.139 S 
ATOM     16  CE  MET A   1      47.900  17.757  78.590  0.00  0.00    +0.069 C 
ENDBRANCH  14  15
ENDBRANCH  13  14
ENDBRANCH  10  13
ENDBRANCH   1  10
TORSDOF 6
REMARK  Name = ../refined-set-2016/1fd0/1fd0_pocket.pdb
REMARK  267 active torsions:
REMARK  status: ('A' for Active; 'I' for Inactive)
REMARK    1  A    between atoms: _1  and  _3
REMARK    2  A    between atoms: _3  and  _4
REMARK    3  A    between atoms: _3  and  _6
REMARK    4  A    between atoms: _6  and  _7
REMARK    5  A    between atoms: _10  and  _12
REMARK    6  A    between atoms: _12  and  _13
REMARK    7  A    between atoms: _12  and  _15
REMARK    8  A    between atoms: _15  and  _16
REMARK    9  A    between atoms: _23  and  _24
REMARK   10  A    between atoms: _29  and  _31
REMARK   11  A    between atoms: _31  and  _32
REMARK   12  A    between atoms: _31  and  _34
REMARK   13  A    between atoms: _34  and  _35
REMARK   14  A    between atoms: _38  and  _40
REMARK   15  A    between atoms: _40  and  _41
REMARK   16  A    between atoms: _40  and  _43
REMARK   17  A    between atoms: _43  and  _44
REMARK   18  A    between atoms: _47  and  _49
REMARK   19  A    between atoms: _49  and  _50
REMARK   20  A    between atoms: _49  and  _52
REMARK   21  A    between atoms: _52  and  _53
REMARK   22  A    between atoms: _63  and  _65
REMARK   23  A    between atoms: _65  and  _66
REMARK   24  A    between atoms: _65  and  _68
REMARK   25  A    between atoms: _68  and  _69
REMARK   26  A    between atoms: _69  and  _70
REMARK   27  A    between atoms: _70  and  _71
REMARK   28  A    between atoms: _71  and  _72
REMARK   29  A    between atoms: _76  and  _78
REMARK   30  A    between atoms: _78  and  _79
REMARK   31  A    between atoms: _78  and  _81
REMARK   32  A    between atoms: _81  and  _82
REMARK   33  A    between atoms: _88  and  _90
REMARK   34  A    between atoms: _90  and  _91
REMARK   35  A    between atoms: _90  and  _93
REMARK   36  A    between atoms: _93  and  _94
REMARK   37  A    between atoms: _96  and  _98
REMARK   38  A    between atoms: _98  and  _99
REMARK   39  A    between atoms: _98  and  _101
REMARK   40  A    between atoms: _101  and  _102
REMARK   41  A    between atoms: _102  and  _103
REMARK   42  A    between atoms: _106  and  _108
REMARK   43  A    between atoms: _108  and  _109
REMARK   44  A    between atoms: _108  and  _111
REMARK   45  A    between atoms: _111  and  _112
REMARK   46  A    between atoms: _115  and  _117
REMARK   47  A    between atoms: _117  and  _118
REMARK   48  A    between atoms: _121  and  _123
REMARK   49  A    between atoms: _123  and  _124
REMARK   50  A    between atoms: _123  and  _126
REMARK   51  A    between atoms: _126  and  _127
REMARK   52  A    between atoms: _130  and  _132
REMARK   53  A    between atoms: _132  and  _133
REMARK   54  A    between atoms: _132  and  _135
REMARK   55  A    between atoms: _135  and  _136
REMARK   56  A    between atoms: _136  and  _137
REMARK   57  A    between atoms: _137  and  _138
REMARK   58  A    between atoms: _138  and  _139
REMARK   59  A    between atoms: _143  and  _145
REMARK   60  A    between atoms: _145  and  _146
REMARK   61  A    between atoms: _145  and  _148
REMARK   62  A    between atoms: _150  and  _152
REMARK   63  A    between atoms: _152  and  _153
REMARK   64  A    between atoms: _152  and  _155
REMARK   65  A    between atoms: _155  and  _156
REMARK   66  A    between atoms: _159  and  _161
REMARK   67  A    between atoms: _161  and  _162
REMARK   68  A    between atoms: _161  and  _164
REMARK   69  A    between atoms: _164  and  _165
REMARK   70  A    between atoms: _165  and  _166
REMARK   71  A    between atoms: _166  and  _167
REMARK   72  A    between atoms: _167  and  _168
REMARK   73  A    between atoms: _172  and  _174
REMARK   74  A    between atoms: _174  and  _175
REMARK   75  A    between atoms: _174  and  _177
REMARK   76  A    between atoms: _177  and  _178
REMARK   77  A    between atoms: _181  and  _183
REMARK   78  A    between atoms: _183  and  _184
REMARK   79  A    between atoms: _183  and  _186
REMARK   80  A    between atoms: _188  and  _190
REMARK   81  A    between atoms: _190  and  _191
REMARK   82  A    between atoms: _190  and  _193
REMARK   83  A    between atoms: _193  and  _194
REMARK   84  A    between atoms: _197  and  _199
REMARK   85  A    between atoms: _199  and  _200
REMARK   86  A    between atoms: _199  and  _202
REMARK   87  A    between atoms: _202  and  _203
REMARK   88  A    between atoms: _206  and  _208
REMARK   89  A    between atoms: _208  and  _209
REMARK   90  A    between atoms: _208  and  _211
REMARK   91  A    between atoms: _211  and  _212
REMARK   92  A    between atoms: _215  and  _217
REMARK   93  A    between atoms: _217  and  _218
REMARK   94  A    between atoms: _217  and  _220
REMARK   95  A    between atoms: _220  and  _221
REMARK   96  A    between atoms: _224  and  _226
REMARK   97  A    between atoms: _226  and  _227
REMARK   98  A    between atoms: _226  and  _229
REMARK   99  A    between atoms: _229  and  _230
REMARK  100  A    between atoms: _230  and  _231
REMARK  101  A    between atoms: _233  and  _235
REMARK  102  A    between atoms: _235  and  _236
REMARK  103  A    between atoms: _235  and  _238
REMARK  104  A    between atoms: _238  and  _239
REMARK  105  A    between atoms: _242  and  _244
REMARK  106  A    between atoms: _244  and  _245
REMARK  107  A    between atoms: _244  and  _247
REMARK  108  A    between atoms: _247  and  _248
REMARK  109  A    between atoms: _248  and  _249
REMARK  110  A    between atoms: _249  and  _250
REMARK  111  A    between atoms: _259  and  _261
REMARK  112  A    between atoms: _261  and  _262
REMARK  113  A    between atoms: _261  and  _264
REMARK  114  A    between atoms: _264  and  _265
REMARK  115  A    between atoms: _268  and  _270
REMARK  116  A    between atoms: _270  and  _271
REMARK  117  A    between atoms: _270  and  _273
REMARK  118  A    between atoms: _275  and  _277
REMARK  119  A    between atoms: _277  and  _278
REMARK  120  A    between atoms: _277  and  _280
REMARK  121  A    between atoms: _280  and  _281
REMARK  122  A    between atoms: _284  and  _286
REMARK  123  A    between atoms: _286  and  _287
REMARK  124  A    between atoms: _286  and  _289
REMARK  125  A    between atoms: _289  and  _290
REMARK  126  A    between atoms: _290  and  _291
REMARK  127  A    between atoms: _291  and  _292
REMARK  128  A    between atoms: _301  and  _303
REMARK  129  A    between atoms: _303  and  _304
REMARK  130  A    between atoms: _303  and  _306
REMARK  131  A    between atoms: _306  and  _307
REMARK  132  A    between atoms: _307  and  _308
REMARK  133  A    between atoms: _310  and  _312
REMARK  134  A    between atoms: _312  and  _313
REMARK  135  A    between atoms: _312  and  _315
REMARK  136  A    between atoms: _315  and  _316
REMARK  137  A    between atoms: _319  and  _321
REMARK  138  A    between atoms: _321  and  _322
REMARK  139  A    between atoms: _321  and  _324
REMARK  140  A    between atoms: _324  and  _325
REMARK  141  A    between atoms: _331  and  _333
REMARK  142  A    between atoms: _333  and  _334
REMARK  143  A    between atoms: _333  and  _336
REMARK  144  A    between atoms: _336  and  _337
REMARK  145  A    between atoms: _339  and  _341
REMARK  146  A    between atoms: _341  and  _342
REMARK  147  A    between atoms: _341  and  _344
REMARK  148  A    between atoms: _344  and  _345
REMARK  149  A    between atoms: _348  and  _350
REMARK  150  A    between atoms: _350  and  _351
REMARK  151  A    between atoms: _353  and  _355
REMARK  152  A    between atoms: _355  and  _356
REMARK  153  A    between atoms: _355  and  _358
REMARK  154  A    between atoms: _358  and  _359
REMARK  155  A    between atoms: _362  and  _364
REMARK  156  A    between atoms: _364  and  _365
REMARK  157  A    between atoms: _364  and  _367
REMARK  158  A    between atoms: _367  and  _368
REMARK  159  A    between atoms: _368  and  _369
REMARK  160  A    between atoms: _371  and  _373
REMARK  161  A    between atoms: _373  and  _374
REMARK  162  A    between atoms: _373  and  _376
REMARK  163  A    between atoms: _376  and  _377
REMARK  164  A    between atoms: _382  and  _384
REMARK  165  A    between atoms: _384  and  _385
REMARK  166  A    between atoms: _388  and  _390
REMARK  167  A    between atoms: _390  and  _391
REMARK  168  A    between atoms: _393  and  _395
REMARK  169  A    between atoms: _395  and  _396
REMARK  170  A    between atoms: _395  and  _398
REMARK  171  A    between atoms: _398  and  _399
REMARK  172  A    between atoms: _405  and  _407
REMARK  173  A    between atoms: _407  and  _408
REMARK  174  A    between atoms: _410  and  _412
REMARK  175  A    between atoms: _412  and  _413
REMARK  176  A    between atoms: _412  and  _415
REMARK  177  A    between atoms: _415  and  _416
REMARK  178  A    between atoms: _419  and  _421
REMARK  179  A    between atoms: _421  and  _422
REMARK  180  A    between atoms: _421  and  _424
REMARK  181  A    between atoms: _424  and  _425
REMARK  182  A    between atoms: _428  and  _430
REMARK  183  A    between atoms: _430  and  _431
REMARK  184  A    between atoms: _430  and  _433
REMARK  185  A    between atoms: _436  and  _438
REMARK  186  A    between atoms: _438  and  _439
REMARK  187  A    between atoms: _438  and  _441
REMARK  188  A    between atoms: _441  and  _442
REMARK  189  A    between atoms: _445  and  _447
REMARK  190  A    between atoms: _447  and  _448
REMARK  191  A    between atoms: _447  and  _450
REMARK  192  A    between atoms: _450  and  _451
REMARK  193  A    between atoms: _453  and  _455
REMARK  194  A    between atoms: _455  and  _456
REMARK  195  A    between atoms: _455  and  _458
REMARK  196  A    between atoms: _458  and  _459
REMARK  197  A    between atoms: _459  and  _460
REMARK  198  A    between atoms: _460  and  _461
REMARK  199  A    between atoms: _461  and  _462
REMARK  200  A    between atoms: _466  and  _468
REMARK  201  A    between atoms: _468  and  _469
REMARK  202  A    between atoms: _471  and  _473
REMARK  203  A    between atoms: _473  and  _474
REMARK  204  A    between atoms: _477  and  _479
REMARK  205  A    between atoms: _479  and  _480
REMARK  206  A    between atoms: _479  and  _482
REMARK  207  A    between atoms: _483  and  _484
REMARK  208  A    between atoms: _487  and  _489
REMARK  209  A    between atoms: _489  and  _490
REMARK  210  A    between atoms: _489  and  _492
REMARK  211  A    between atoms: _492  and  _493
REMARK  212  A    between atoms: _493  and  _494
REMARK  213  A    between atoms: _494  and  _495
REMARK  214  A    between atoms: _504  and  _506
REMARK  215  A    between atoms: _506  and  _507
REMARK  216  A    between atoms: _510  and  _512
REMARK  217  A    between atoms: _512  and  _513
REMARK  218  A    between atoms: _512  and  _515
REMARK  219  A    between atoms: _515  and  _516
REMARK  220  A    between atoms: _519  and  _521
REMARK  221  A    between atoms: _521  and  _522
REMARK  222  A    between atoms: _521  and  _524
REMARK  223  A    between atoms: _524  and  _525
REMARK  224  A    between atoms: _528  and  _530
REMARK  225  A    between atoms: _530  and  _531
REMARK  226  A    between atoms: _530  and  _533
REMARK  227  A    between atoms: _533  and  _534
REMARK  228  A    between atoms: _537  and  _539
REMARK  229  A    between atoms: _539  and  _540
REMARK  230  A    between atoms: _539  and  _542
REMARK  231  A    between atoms: _542  and  _543
REMARK  232  A    between atoms: _543  and  _544
REMARK  233  A    between atoms: _544  and  _545
REMARK  234  A    between atoms: _545  and  _546
REMARK  235  A    between atoms: _550  and  _552
REMARK  236  A    between atoms: _552  and  _553
REMARK  237  A    between atoms: _552  and  _555
REMARK  238  A    between atoms: _555  and  _556
REMARK  239  A    between atoms: _559  and  _561
REMARK  240  A    between atoms: _561  and  _562
REMARK  241  A    between atoms: _561  and  _564
REMARK  242  A    between atoms: _564  and  _565
REMARK  243  A    between atoms: _565  and  _566
REMARK  244  A    between atoms: _569  and  _570
REMARK  245  A    between atoms: _575  and  _577
REMARK  246  A    between atoms: _577  and  _578
REMARK  247  A    between atoms: _577  and  _580
REMARK  248  A    between atoms: _580  and  _581
REMARK  249  A    between atoms: _584  and  _586
REMARK  250  A    between atoms: _586  and  _587
REMARK  251  A    between atoms: _586  and  _589
REMARK  252  A    between atoms: _589  and  _590
REMARK  253  A    between atoms: _593  and  _595
REMARK  254  A    between atoms: _595  and  _596
REMARK  255  A    between atoms: _595  and  _598
REMARK  256  A    between atoms: _598  and  _599
REMARK  257  A    between atoms: _599  and  _600
REMARK  258  A    between atoms: _600  and  _601
REMARK  259  A    between atoms: _610  and  _612
REMARK  260  A    between atoms: _612  and  _613
REMARK  261  A    between atoms: _612  and  _615
REMARK  262  A    between atoms: _615  and  _616
REMARK  263  A    between atoms: _616  and  _617
REMARK  264  A    between atoms: _619  and  _621
REMARK  265  A    between atoms: _621  and  _622
REMARK  266  A    between atoms: _621  and  _624
REMARK  267  A    between atoms: _624  and  _625
REMARK                            x       y       z     vdW  Elec       q    Type
REMARK                         _______ _______ _______ _____ _____    ______ ____
ROOT
ATOM      1  C   ILE A   2      49.193  19.403  85.921  0.00  0.00    +0.241 C 
ATOM      2  O   ILE A   2      49.533  18.242  86.134  0.00  0.00    -0.273 OA
ATOM      3  N   ARG A   3      50.115  20.332  85.561  0.00  0.00    -0.298 N 
ATOM      4  H   ARG A   3      49.833  21.315  85.374  0.00  0.00    +0.150 HD
ENDROOT
BRANCH   1   5
ATOM      5  CA  ILE A   2      47.765  19.875  86.086  0.00  0.00    +0.148 C 
BRANCH   5   8
ATOM      6  C   LEU A   1      48.149  21.228  88.092  0.00  0.00    +0.238 C 
ATOM      7  O   LEU A   1      48.444  20.208  88.749  0.00  0.00    -0.274 OA
ATOM      8  N   ILE A   2      47.755  21.140  86.834  0.00  0.00    -0.297 N 
ATOM      9  H   ILE A   2      47.424  22.001  86.353  0.00  0.00    +0.150 HD
BRANCH   6  10
ATOM     10  CA  LEU A   1      48.298  22.607  88.726  0.00  0.00    +0.145 C 
BRANCH  10  11
ATOM     11  N   LEU A   1      48.625  23.653  87.740  0.00  0.00    -0.238 NA
ATOM     12  H   LEU A   1      47.927  24.380  87.484  0.00  0.00    +0.142 HD
ENDBRANCH  10  11
BRANCH  10  13
ATOM     13  CB  LEU A   1      47.047  22.940  89.536  0.00  0.00    +0.026 C 
BRANCH  13  14
ATOM     14  CG  LEU A   1      47.129  24.108  90.494  0.00  0.00    +0.002 C 
ATOM     15  CD2 LEU A   1      48.287  23.979  91.441  0.00  0.00    +0.000 C 
ATOM     16  CD1 LEU A   1      45.873  24.164  91.351  0.00  0.00    +0.000 C 
ENDBRANCH  13  14
ENDBRANCH  10  13
ENDBRANCH   6  10
ENDBRANCH   5   8
BRANCH   5  17
ATOM     17  CB  ILE A   2      46.999  20.019  84.766  0.00  0.00    +0.027 C 
ATOM     18  CG2 ILE A   2      47.304  18.865  83.825  0.00  0.00    +0.002 C 
BRANCH  17  19
ATOM     19  CG1 ILE A   2      45.506  20.136  85.038  0.00  0.00    +0.002 C 
ATOM     20  CD1 ILE A   2      44.612  20.535  83.847  0.00  0.00    +0.000 C 
ENDBRANCH  17  19
ENDBRANCH   5  17
ENDBRANCH   1   5
BRANCH   3  21
ATOM     21  CA  ARG A   3      51.516  19.921  85.442  0.00  0.00    +0.137 C 
BRANCH  21  22
ATOM     22  C   ARG A   3      52.112  19.458  86.753  0.00  0.00    +0.227 C 
ATOM     23  O   ARG A   3      52.883  18.512  86.794  0.00  0.00    -0.286 OA
ENDBRANCH  21  22
BRANCH  21  24
ATOM     24  CB  ARG A   3      52.324  21.087  84.831  0.00  0.00    +0.031 C 
BRANCH  24  25
ATOM     25  CG  ARG A   3      51.902  21.394  83.407  0.00  0.00    +0.045 C 
BRANCH  25  26
ATOM     26  CD  ARG A   3      52.578  22.667  82.852  0.00  0.00    +0.174 C 
BRANCH  26  27
ATOM     27  NE  ARG A   3      53.916  22.329  82.431  0.00  0.00    -0.265 N 
ATOM     28  HE  ARG A   3      54.217  21.336  82.501  0.00  0.00    +0.259 HD
ATOM     29  CZ  ARG A   3      54.786  23.217  81.958  0.00  0.00    +0.342 C 
ATOM     30  NH2 ARG A   3      54.438  24.502  81.885  0.00  0.00    -0.292 N 
ATOM     31 HH21 ARG A   3      53.493  24.803  82.197  0.00  0.00    +0.255 HD
ATOM     32 HH22 ARG A   3      55.112  25.203  81.516  0.00  0.00    +0.255 HD
ATOM     33  NH1 ARG A   3      55.993  22.879  81.580  0.00  0.00    -0.292 N 
ATOM     34 HH11 ARG A   3      56.300  21.887  81.645  0.00  0.00    +0.255 HD
ATOM     35 HH12 ARG A   3      56.645  23.602  81.215  0.00  0.00    +0.255 HD
ENDBRANCH  26  27
ENDBRANCH  25  26
ENDBRANCH  24  25
ENDBRANCH  21  24
ENDBRANCH   3  21
TORSDOF 14
REMARK  Name = ../refined-set-2016/1fd0/1fd0_pocket.pdb
REMARK  267 active torsions:
REMARK  status: ('A' for Active; 'I' for Inactive)
REMARK    1  A    between atoms: _1  and  _3
REMARK    2  A    between atoms: _3  and  _4
REMARK    3  A    between atoms: _3  and  _6
REMARK    4  A    between atoms: _6  and  _7
REMARK    5  A    between atoms: _10  and  _12
REMARK    6  A    between atoms: _12  and  _13
REMARK    7  A    between atoms: _12  and  _15
REMARK    8  A    between atoms: _15  and  _16
REMARK    9  A    between atoms: _23  and  _24
REMARK   10  A    between atoms: _29  and  _31
REMARK   11  A    between atoms: _31  and  _32
REMARK   12  A    between atoms: _31  and  _34
REMARK   13  A    between atoms: _34  and  _35
REMARK   14  A    between atoms: _38  and  _40
REMARK   15  A    between atoms: _40  and  _41
REMARK   16  A    between atoms: _40  and  _43
REMARK   17  A    between atoms: _43  and  _44
REMARK   18  A    between atoms: _47  and  _49
REMARK   19  A    between atoms: _49  and  _50
REMARK   20  A    between atoms: _49  and  _52
REMARK   21  A    between atoms: _52  and  _53
REMARK   22  A    between atoms: _63  and  _65
REMARK   23  A    between atoms: _65  and  _66
REMARK   24  A    between atoms: _65  and  _68
REMARK   25  A    between atoms: _68  and  _69
REMARK   26  A    between atoms: _69  and  _70
REMARK   27  A    between atoms: _70  and  _71
REMARK   28  A    between atoms: _71  and  _72
REMARK   29  A    between atoms: _76  and  _78
REMARK   30  A    between atoms: _78  and  _79
REMARK   31  A    between atoms: _78  and  _81
REMARK   32  A    between atoms: _81  and  _82
REMARK   33  A    between atoms: _88  and  _90
REMARK   34  A    between atoms: _90  and  _91
REMARK   35  A    between atoms: _90  and  _93
REMARK   36  A    between atoms: _93  and  _94
REMARK   37  A    between atoms: _96  and  _98
REMARK   38  A    between atoms: _98  and  _99
REMARK   39  A    between atoms: _98  and  _101
REMARK   40  A    between atoms: _101  and  _102
REMARK   41  A    between atoms: _102  and  _103
REMARK   42  A    between atoms: _106  and  _108
REMARK   43  A    between atoms: _108  and  _109
REMARK   44  A    between atoms: _108  and  _111
REMARK   45  A    between atoms: _111  and  _112
REMARK   46  A    between atoms: _115  and  _117
REMARK   47  A    between atoms: _117  and  _118
REMARK   48  A    between atoms: _121  and  _123
REMARK   49  A    between atoms: _123  and  _124
REMARK   50  A    between atoms: _123  and  _126
REMARK   51  A    between atoms: _126  and  _127
REMARK   52  A    between atoms: _130  and  _132
REMARK   53  A    between atoms: _132  and  _133
REMARK   54  A    between atoms: _132  and  _135
REMARK   55  A    between atoms: _135  and  _136
REMARK   56  A    between atoms: _136  and  _137
REMARK   57  A    between atoms: _137  and  _138
REMARK   58  A    between atoms: _138  and  _139
REMARK   59  A    between atoms: _143  and  _145
REMARK   60  A    between atoms: _145  and  _146
REMARK   61  A    between atoms: _145  and  _148
REMARK   62  A    between atoms: _150  and  _152
REMARK   63  A    between atoms: _152  and  _153
REMARK   64  A    between atoms: _152  and  _155
REMARK   65  A    between atoms: _155  and  _156
REMARK   66  A    between atoms: _159  and  _161
REMARK   67  A    between atoms: _161  and  _162
REMARK   68  A    between atoms: _161  and  _164
REMARK   69  A    between atoms: _164  and  _165
REMARK   70  A    between atoms: _165  and  _166
REMARK   71  A    between atoms: _166  and  _167
REMARK   72  A    between atoms: _167  and  _168
REMARK   73  A    between atoms: _172  and  _174
REMARK   74  A    between atoms: _174  and  _175
REMARK   75  A    between atoms: _174  and  _177
REMARK   76  A    between atoms: _177  and  _178
REMARK   77  A    between atoms: _181  and  _183
REMARK   78  A    between atoms: _183  and  _184
REMARK   79  A    between atoms: _183  and  _186
REMARK   80  A    between atoms: _188  and  _190
REMARK   81  A    between atoms: _190  and  _191
REMARK   82  A    between atoms: _190  and  _193
REMARK   83  A    between atoms: _193  and  _194
REMARK   84  A    between atoms: _197  and  _199
REMARK   85  A    between atoms: _199  and  _200
REMARK   86  A    between atoms: _199  and  _202
REMARK   87  A    between atoms: _202  and  _203
REMARK   88  A    between atoms: _206  and  _208
REMARK   89  A    between atoms: _208  and  _209
REMARK   90  A    between atoms: _208  and  _211
REMARK   91  A    between atoms: _211  and  _212
REMARK   92  A    between atoms: _215  and  _217
REMARK   93  A    between atoms: _217  and  _218
REMARK   94  A    between atoms: _217  and  _220
REMARK   95  A    between atoms: _220  and  _221
REMARK   96  A    between atoms: _224  and  _226
REMARK   97  A    between atoms: _226  and  _227
REMARK   98  A    between atoms: _226  and  _229
REMARK   99  A    between atoms: _229  and  _230
REMARK  100  A    between atoms: _230  and  _231
REMARK  101  A    between atoms: _233  and  _235
REMARK  102  A    between atoms: _235  and  _236
REMARK  103  A    between atoms: _235  and  _238
REMARK  104  A    between atoms: _238  and  _239
REMARK  105  A    between atoms: _242  and  _244
REMARK  106  A    between atoms: _244  and  _245
REMARK  107  A    between atoms: _244  and  _247
REMARK  108  A    between atoms: _247  and  _248
REMARK  109  A    between atoms: _248  and  _249
REMARK  110  A    between atoms: _249  and  _250
REMARK  111  A    between atoms: _259  and  _261
REMARK  112  A    between atoms: _261  and  _262
REMARK  113  A    between atoms: _261  and  _264
REMARK  114  A    between atoms: _264  and  _265
REMARK  115  A    between atoms: _268  and  _270
REMARK  116  A    between atoms: _270  and  _271
REMARK  117  A    between atoms: _270  and  _273
REMARK  118  A    between atoms: _275  and  _277
REMARK  119  A    between atoms: _277  and  _278
REMARK  120  A    between atoms: _277  and  _280
REMARK  121  A    between atoms: _280  and  _281
REMARK  122  A    between atoms: _284  and  _286
REMARK  123  A    between atoms: _286  and  _287
REMARK  124  A    between atoms: _286  and  _289
REMARK  125  A    between atoms: _289  and  _290
REMARK  126  A    between atoms: _290  and  _291
REMARK  127  A    between atoms: _291  and  _292
REMARK  128  A    between atoms: _301  and  _303
REMARK  129  A    between atoms: _303  and  _304
REMARK  130  A    between atoms: _303  and  _306
REMARK  131  A    between atoms: _306  and  _307
REMARK  132  A    between atoms: _307  and  _308
REMARK  133  A    between atoms: _310  and  _312
REMARK  134  A    between atoms: _312  and  _313
REMARK  135  A    between atoms: _312  and  _315
REMARK  136  A    between atoms: _315  and  _316
REMARK  137  A    between atoms: _319  and  _321
REMARK  138  A    between atoms: _321  and  _322
REMARK  139  A    between atoms: _321  and  _324
REMARK  140  A    between atoms: _324  and  _325
REMARK  141  A    between atoms: _331  and  _333
REMARK  142  A    between atoms: _333  and  _334
REMARK  143  A    between atoms: _333  and  _336
REMARK  144  A    between atoms: _336  and  _337
REMARK  145  A    between atoms: _339  and  _341
REMARK  146  A    between atoms: _341  and  _342
REMARK  147  A    between atoms: _341  and  _344
REMARK  148  A    between atoms: _344  and  _345
REMARK  149  A    between atoms: _348  and  _350
REMARK  150  A    between atoms: _350  and  _351
REMARK  151  A    between atoms: _353  and  _355
REMARK  152  A    between atoms: _355  and  _356
REMARK  153  A    between atoms: _355  and  _358
REMARK  154  A    between atoms: _358  and  _359
REMARK  155  A    between atoms: _362  and  _364
REMARK  156  A    between atoms: _364  and  _365
REMARK  157  A    between atoms: _364  and  _367
REMARK  158  A    between atoms: _367  and  _368
REMARK  159  A    between atoms: _368  and  _369
REMARK  160  A    between atoms: _371  and  _373
REMARK  161  A    between atoms: _373  and  _374
REMARK  162  A    between atoms: _373  and  _376
REMARK  163  A    between atoms: _376  and  _377
REMARK  164  A    between atoms: _382  and  _384
REMARK  165  A    between atoms: _384  and  _385
REMARK  166  A    between atoms: _388  and  _390
REMARK  167  A    between atoms: _390  and  _391
REMARK  168  A    between atoms: _393  and  _395
REMARK  169  A    between atoms: _395  and  _396
REMARK  170  A    between atoms: _395  and  _398
REMARK  171  A    between atoms: _398  and  _399
REMARK  172  A    between atoms: _405  and  _407
REMARK  173  A    between atoms: _407  and  _408
REMARK  174  A    between atoms: _410  and  _412
REMARK  175  A    between atoms: _412  and  _413
REMARK  176  A    between atoms: _412  and  _415
REMARK  177  A    between atoms: _415  and  _416
REMARK  178  A    between atoms: _419  and  _421
REMARK  179  A    between atoms: _421  and  _422
REMARK  180  A    between atoms: _421  and  _424
REMARK  181  A    between atoms: _424  and  _425
REMARK  182  A    between atoms: _428  and  _430
REMARK  183  A    between atoms: _430  and  _431
REMARK  184  A    between atoms: _430  and  _433
REMARK  185  A    between atoms: _436  and  _438
REMARK  186  A    between atoms: _438  and  _439
REMARK  187  A    between atoms: _438  and  _441
REMARK  188  A    between atoms: _441  and  _442
REMARK  189  A    between atoms: _445  and  _447
REMARK  190  A    between atoms: _447  and  _448
REMARK  191  A    between atoms: _447  and  _450
REMARK  192  A    between atoms: _450  and  _451
REMARK  193  A    between atoms: _453  and  _455
REMARK  194  A    between atoms: _455  and  _456
REMARK  195  A    between atoms: _455  and  _458
REMARK  196  A    between atoms: _458  and  _459
REMARK  197  A    between atoms: _459  and  _460
REMARK  198  A    between atoms: _460  and  _461
REMARK  199  A    between atoms: _461  and  _462
REMARK  200  A    between atoms: _466  and  _468
REMARK  201  A    between atoms: _468  and  _469
REMARK  202  A    between atoms: _471  and  _473
REMARK  203  A    between atoms: _473  and  _474
REMARK  204  A    between atoms: _477  and  _479
REMARK  205  A    between atoms: _479  and  _480
REMARK  206  A    between atoms: _479  and  _482
REMARK  207  A    between atoms: _483  and  _484
REMARK  208  A    between atoms: _487  and  _489
REMARK  209  A    between atoms: _489  and  _490
REMARK  210  A    between atoms: _489  and  _492
REMARK  211  A    between atoms: _492  and  _493
REMARK  212  A    between atoms: _493  and  _494
REMARK  213  A    between atoms: _494  and  _495
REMARK  214  A    between atoms: _504  and  _506
REMARK  215  A    between atoms: _506  and  _507
REMARK  216  A    between atoms: _510  and  _512
REMARK  217  A    between atoms: _512  and  _513
REMARK  218  A    between atoms: _512  and  _515
REMARK  219  A    between atoms: _515  and  _516
REMARK  220  A    between atoms: _519  and  _521
REMARK  221  A    between atoms: _521  and  _522
REMARK  222  A    between atoms: _521  and  _524
REMARK  223  A    between atoms: _524  and  _525
REMARK  224  A    between atoms: _528  and  _530
REMARK  225  A    between atoms: _530  and  _531
REMARK  226  A    between atoms: _530  and  _533
REMARK  227  A    between atoms: _533  and  _534
REMARK  228  A    between atoms: _537  and  _539
REMARK  229  A    between atoms: _539  and  _540
REMARK  230  A    between atoms: _539  and  _542
REMARK  231  A    between atoms: _542  and  _543
REMARK  232  A    between atoms: _543  and  _544
REMARK  233  A    between atoms: _544  and  _545
REMARK  234  A    between atoms: _545  and  _546
REMARK  235  A    between atoms: _550  and  _552
REMARK  236  A    between atoms: _552  and  _553
REMARK  237  A    between atoms: _552  and  _555
REMARK  238  A    between atoms: _555  and  _556
REMARK  239  A    between atoms: _559  and  _561
REMARK  240  A    between atoms: _561  and  _562
REMARK  241  A    between atoms: _561  and  _564
REMARK  242  A    between atoms: _564  and  _565
REMARK  243  A    between atoms: _565  and  _566
REMARK  244  A    between atoms: _569  and  _570
REMARK  245  A    between atoms: _575  and  _577
REMARK  246  A    between atoms: _577  and  _578
REMARK  247  A    between atoms: _577  and  _580
REMARK  248  A    between atoms: _580  and  _581
REMARK  249  A    between atoms: _584  and  _586
REMARK  250  A    between atoms: _586  and  _587
REMARK  251  A    between atoms: _586  and  _589
REMARK  252  A    between atoms: _589  and  _590
REMARK  253  A    between atoms: _593  and  _595
REMARK  254  A    between atoms: _595  and  _596
REMARK  255  A    between atoms: _595  and  _598
REMARK  256  A    between atoms: _598  and  _599
REMARK  257  A    between atoms: _599  and  _600
REMARK  258  A    between atoms: _600  and  _601
REMARK  259  A    between atoms: _610  and  _612
REMARK  260  A    between atoms: _612  and  _613
REMARK  261  A    between atoms: _612  and  _615
REMARK  262  A    between atoms: _615  and  _616
REMARK  263  A    between atoms: _616  and  _617
REMARK  264  A    between atoms: _619  and  _621
REMARK  265  A    between atoms: _621  and  _622
REMARK  266  A    between atoms: _621  and  _624
REMARK  267  A    between atoms: _624  and  _625
REMARK                            x       y       z     vdW  Elec       q    Type
REMARK                         _______ _______ _______ _____ _____    ______ ____
ROOT
ATOM      1  C   MET A   1      50.678  15.484  88.419  0.00  0.00    +0.238 C 
ATOM      2  O   MET A   1      50.894  14.328  88.847  0.00  0.00    -0.274 OA
ATOM      3  N   LEU A   2      51.071  15.867  87.199  0.00  0.00    -0.298 N 
ATOM      4  H   LEU A   2      50.923  16.854  86.907  0.00  0.00    +0.150 HD
ENDROOT
BRANCH   1   5
ATOM      5  CA  MET A   1      49.939  16.538  89.236  0.00  0.00    +0.146 C 
BRANCH   5   6
ATOM      6  N   MET A   1      50.480  17.867  89.056  0.00  0.00    -0.238 NA
ATOM      7  H   MET A   1      49.873  18.595  88.629  0.00  0.00    +0.142 HD
ENDBRANCH   5   6
BRANCH   5   8
ATOM      8  CB  MET A   1      48.448  16.590  88.877  0.00  0.00    +0.038 C 
BRANCH   8   9
ATOM      9  CG  MET A   1      47.788  15.244  88.852  0.00  0.00    +0.060 C 
BRANCH   9  10
ATOM     10  SD  MET A   1      46.035  15.353  88.503  0.00  0.00    -0.139 S 
ATOM     11  CE  MET A   1      46.056  15.639  86.727  0.00  0.00    +0.069 C 
ENDBRANCH   9  10
ENDBRANCH   8   9
ENDBRANCH   5   8
ENDBRANCH   1   5
BRANCH   3  12
ATOM     12  CA  LEU A   2      51.698  14.945  86.271  0.00  0.00    +0.137 C 
BRANCH  12  13
ATOM     13  C   LEU A   2      53.143  14.673  86.550  0.00  0.00    +0.227 C 
ATOM     14  O   LEU A   2      53.698  13.654  86.104  0.00  0.00    -0.286 OA
ENDBRANCH  12  13
BRANCH  12  15
ATOM     15  CB  LEU A   2      51.510  15.479  84.832  0.00  0.00    +0.028 C 
BRANCH  15  16
ATOM     16  CG  LEU A   2      50.049  15.498  84.343  0.00  0.00    +0.002 C 
ATOM     17  CD2 LEU A   2      49.498  14.086  84.245  0.00  0.00    +0.000 C 
ATOM     18  CD1 LEU A   2      49.958  16.189  83.000  0.00  0.00    +0.000 C 
ENDBRANCH  15  16
ENDBRANCH  12  15
ENDBRANCH   3  12
TORSDOF 9
REMARK  Name = ../refined-set-2016/1fd0/1fd0_pocket.pdb
REMARK  267 active torsions:
REMARK  status: ('A' for Active; 'I' for Inactive)
REMARK    1  A    between atoms: _1  and  _3
REMARK    2  A    between atoms: _3  and  _4
REMARK    3  A    between atoms: _3  and  _6
REMARK    4  A    between atoms: _6  and  _7
REMARK    5  A    between atoms: _10  and  _12
REMARK    6  A    between atoms: _12  and  _13
REMARK    7  A    between atoms: _12  and  _15
REMARK    8  A    between atoms: _15  and  _16
REMARK    9  A    between atoms: _23  and  _24
REMARK   10  A    between atoms: _29  and  _31
REMARK   11  A    between atoms: _31  and  _32
REMARK   12  A    between atoms: _31  and  _34
REMARK   13  A    between atoms: _34  and  _35
REMARK   14  A    between atoms: _38  and  _40
REMARK   15  A    between atoms: _40  and  _41
REMARK   16  A    between atoms: _40  and  _43
REMARK   17  A    between atoms: _43  and  _44
REMARK   18  A    between atoms: _47  and  _49
REMARK   19  A    between atoms: _49  and  _50
REMARK   20  A    between atoms: _49  and  _52
REMARK   21  A    between atoms: _52  and  _53
REMARK   22  A    between atoms: _63  and  _65
REMARK   23  A    between atoms: _65  and  _66
REMARK   24  A    between atoms: _65  and  _68
REMARK   25  A    between atoms: _68  and  _69
REMARK   26  A    between atoms: _69  and  _70
REMARK   27  A    between atoms: _70  and  _71
REMARK   28  A    between atoms: _71  and  _72
REMARK   29  A    between atoms: _76  and  _78
REMARK   30  A    between atoms: _78  and  _79
REMARK   31  A    between atoms: _78  and  _81
REMARK   32  A    between atoms: _81  and  _82
REMARK   33  A    between atoms: _88  and  _90
REMARK   34  A    between atoms: _90  and  _91
REMARK   35  A    between atoms: _90  and  _93
REMARK   36  A    between atoms: _93  and  _94
REMARK   37  A    between atoms: _96  and  _98
REMARK   38  A    between atoms: _98  and  _99
REMARK   39  A    between atoms: _98  and  _101
REMARK   40  A    between atoms: _101  and  _102
REMARK   41  A    between atoms: _102  and  _103
REMARK   42  A    between atoms: _106  and  _108
REMARK   43  A    between atoms: _108  and  _109
REMARK   44  A    between atoms: _108  and  _111
REMARK   45  A    between atoms: _111  and  _112
REMARK   46  A    between atoms: _115  and  _117
REMARK   47  A    between atoms: _117  and  _118
REMARK   48  A    between atoms: _121  and  _123
REMARK   49  A    between atoms: _123  and  _124
REMARK   50  A    between atoms: _123  and  _126
REMARK   51  A    between atoms: _126  and  _127
REMARK   52  A    between atoms: _130  and  _132
REMARK   53  A    between atoms: _132  and  _133
REMARK   54  A    between atoms: _132  and  _135
REMARK   55  A    between atoms: _135  and  _136
REMARK   56  A    between atoms: _136  and  _137
REMARK   57  A    between atoms: _137  and  _138
REMARK   58  A    between atoms: _138  and  _139
REMARK   59  A    between atoms: _143  and  _145
REMARK   60  A    between atoms: _145  and  _146
REMARK   61  A    between atoms: _145  and  _148
REMARK   62  A    between atoms: _150  and  _152
REMARK   63  A    between atoms: _152  and  _153
REMARK   64  A    between atoms: _152  and  _155
REMARK   65  A    between atoms: _155  and  _156
REMARK   66  A    between atoms: _159  and  _161
REMARK   67  A    between atoms: _161  and  _162
REMARK   68  A    between atoms: _161  and  _164
REMARK   69  A    between atoms: _164  and  _165
REMARK   70  A    between atoms: _165  and  _166
REMARK   71  A    between atoms: _166  and  _167
REMARK   72  A    between atoms: _167  and  _168
REMARK   73  A    between atoms: _172  and  _174
REMARK   74  A    between atoms: _174  and  _175
REMARK   75  A    between atoms: _174  and  _177
REMARK   76  A    between atoms: _177  and  _178
REMARK   77  A    between atoms: _181  and  _183
REMARK   78  A    between atoms: _183  and  _184
REMARK   79  A    between atoms: _183  and  _186
REMARK   80  A    between atoms: _188  and  _190
REMARK   81  A    between atoms: _190  and  _191
REMARK   82  A    between atoms: _190  and  _193
REMARK   83  A    between atoms: _193  and  _194
REMARK   84  A    between atoms: _197  and  _199
REMARK   85  A    between atoms: _199  and  _200
REMARK   86  A    between atoms: _199  and  _202
REMARK   87  A    between atoms: _202  and  _203
REMARK   88  A    between atoms: _206  and  _208
REMARK   89  A    between atoms: _208  and  _209
REMARK   90  A    between atoms: _208  and  _211
REMARK   91  A    between atoms: _211  and  _212
REMARK   92  A    between atoms: _215  and  _217
REMARK   93  A    between atoms: _217  and  _218
REMARK   94  A    between atoms: _217  and  _220
REMARK   95  A    between atoms: _220  and  _221
REMARK   96  A    between atoms: _224  and  _226
REMARK   97  A    between atoms: _226  and  _227
REMARK   98  A    between atoms: _226  and  _229
REMARK   99  A    between atoms: _229  and  _230
REMARK  100  A    between atoms: _230  and  _231
REMARK  101  A    between atoms: _233  and  _235
REMARK  102  A    between atoms: _235  and  _236
REMARK  103  A    between atoms: _235  and  _238
REMARK  104  A    between atoms: _238  and  _239
REMARK  105  A    between atoms: _242  and  _244
REMARK  106  A    between atoms: _244  and  _245
REMARK  107  A    between atoms: _244  and  _247
REMARK  108  A    between atoms: _247  and  _248
REMARK  109  A    between atoms: _248  and  _249
REMARK  110  A    between atoms: _249  and  _250
REMARK  111  A    between atoms: _259  and  _261
REMARK  112  A    between atoms: _261  and  _262
REMARK  113  A    between atoms: _261  and  _264
REMARK  114  A    between atoms: _264  and  _265
REMARK  115  A    between atoms: _268  and  _270
REMARK  116  A    between atoms: _270  and  _271
REMARK  117  A    between atoms: _270  and  _273
REMARK  118  A    between atoms: _275  and  _277
REMARK  119  A    between atoms: _277  and  _278
REMARK  120  A    between atoms: _277  and  _280
REMARK  121  A    between atoms: _280  and  _281
REMARK  122  A    between atoms: _284  and  _286
REMARK  123  A    between atoms: _286  and  _287
REMARK  124  A    between atoms: _286  and  _289
REMARK  125  A    between atoms: _289  and  _290
REMARK  126  A    between atoms: _290  and  _291
REMARK  127  A    between atoms: _291  and  _292
REMARK  128  A    between atoms: _301  and  _303
REMARK  129  A    between atoms: _303  and  _304
REMARK  130  A    between atoms: _303  and  _306
REMARK  131  A    between atoms: _306  and  _307
REMARK  132  A    between atoms: _307  and  _308
REMARK  133  A    between atoms: _310  and  _312
REMARK  134  A    between atoms: _312  and  _313
REMARK  135  A    between atoms: _312  and  _315
REMARK  136  A    between atoms: _315  and  _316
REMARK  137  A    between atoms: _319  and  _321
REMARK  138  A    between atoms: _321  and  _322
REMARK  139  A    between atoms: _321  and  _324
REMARK  140  A    between atoms: _324  and  _325
REMARK  141  A    between atoms: _331  and  _333
REMARK  142  A    between atoms: _333  and  _334
REMARK  143  A    between atoms: _333  and  _336
REMARK  144  A    between atoms: _336  and  _337
REMARK  145  A    between atoms: _339  and  _341
REMARK  146  A    between atoms: _341  and  _342
REMARK  147  A    between atoms: _341  and  _344
REMARK  148  A    between atoms: _344  and  _345
REMARK  149  A    between atoms: _348  and  _350
REMARK  150  A    between atoms: _350  and  _351
REMARK  151  A    between atoms: _353  and  _355
REMARK  152  A    between atoms: _355  and  _356
REMARK  153  A    between atoms: _355  and  _358
REMARK  154  A    between atoms: _358  and  _359
REMARK  155  A    between atoms: _362  and  _364
REMARK  156  A    between atoms: _364  and  _365
REMARK  157  A    between atoms: _364  and  _367
REMARK  158  A    between atoms: _367  and  _368
REMARK  159  A    between atoms: _368  and  _369
REMARK  160  A    between atoms: _371  and  _373
REMARK  161  A    between atoms: _373  and  _374
REMARK  162  A    between atoms: _373  and  _376
REMARK  163  A    between atoms: _376  and  _377
REMARK  164  A    between atoms: _382  and  _384
REMARK  165  A    between atoms: _384  and  _385
REMARK  166  A    between atoms: _388  and  _390
REMARK  167  A    between atoms: _390  and  _391
REMARK  168  A    between atoms: _393  and  _395
REMARK  169  A    between atoms: _395  and  _396
REMARK  170  A    between atoms: _395  and  _398
REMARK  171  A    between atoms: _398  and  _399
REMARK  172  A    between atoms: _405  and  _407
REMARK  173  A    between atoms: _407  and  _408
REMARK  174  A    between atoms: _410  and  _412
REMARK  175  A    between atoms: _412  and  _413
REMARK  176  A    between atoms: _412  and  _415
REMARK  177  A    between atoms: _415  and  _416
REMARK  178  A    between atoms: _419  and  _421
REMARK  179  A    between atoms: _421  and  _422
REMARK  180  A    between atoms: _421  and  _424
REMARK  181  A    between atoms: _424  and  _425
REMARK  182  A    between atoms: _428  and  _430
REMARK  183  A    between atoms: _430  and  _431
REMARK  184  A    between atoms: _430  and  _433
REMARK  185  A    between atoms: _436  and  _438
REMARK  186  A    between atoms: _438  and  _439
REMARK  187  A    between atoms: _438  and  _441
REMARK  188  A    between atoms: _441  and  _442
REMARK  189  A    between atoms: _445  and  _447
REMARK  190  A    between atoms: _447  and  _448
REMARK  191  A    between atoms: _447  and  _450
REMARK  192  A    between atoms: _450  and  _451
REMARK  193  A    between atoms: _453  and  _455
REMARK  194  A    between atoms: _455  and  _456
REMARK  195  A    between atoms: _455  and  _458
REMARK  196  A    between atoms: _458  and  _459
REMARK  197  A    between atoms: _459  and  _460
REMARK  198  A    between atoms: _460  and  _461
REMARK  199  A    between atoms: _461  and  _462
REMARK  200  A    between atoms: _466  and  _468
REMARK  201  A    between atoms: _468  and  _469
REMARK  202  A    between atoms: _471  and  _473
REMARK  203  A    between atoms: _473  and  _474
REMARK  204  A    between atoms: _477  and  _479
REMARK  205  A    between atoms: _479  and  _480
REMARK  206  A    between atoms: _479  and  _482
REMARK  207  A    between atoms: _483  and  _484
REMARK  208  A    between atoms: _487  and  _489
REMARK  209  A    between atoms: _489  and  _490
REMARK  210  A    between atoms: _489  and  _492
REMARK  211  A    between atoms: _492  and  _493
REMARK  212  A    between atoms: _493  and  _494
REMARK  213  A    between atoms: _494  and  _495
REMARK  214  A    between atoms: _504  and  _506
REMARK  215  A    between atoms: _506  and  _507
REMARK  216  A    between atoms: _510  and  _512
REMARK  217  A    between atoms: _512  and  _513
REMARK  218  A    between atoms: _512  and  _515
REMARK  219  A    between atoms: _515  and  _516
REMARK  220  A    between atoms: _519  and  _521
REMARK  221  A    between atoms: _521  and  _522
REMARK  222  A    between atoms: _521  and  _524
REMARK  223  A    between atoms: _524  and  _525
REMARK  224  A    between atoms: _528  and  _530
REMARK  225  A    between atoms: _530  and  _531
REMARK  226  A    between atoms: _530  and  _533
REMARK  227  A    between atoms: _533  and  _534
REMARK  228  A    between atoms: _537  and  _539
REMARK  229  A    between atoms: _539  and  _540
REMARK  230  A    between atoms: _539  and  _542
REMARK  231  A    between atoms: _542  and  _543
REMARK  232  A    between atoms: _543  and  _544
REMARK  233  A    between atoms: _544  and  _545
REMARK  234  A    between atoms: _545  and  _546
REMARK  235  A    between atoms: _550  and  _552
REMARK  236  A    between atoms: _552  and  _553
REMARK  237  A    between atoms: _552  and  _555
REMARK  238  A    between atoms: _555  and  _556
REMARK  239  A    between atoms: _559  and  _561
REMARK  240  A    between atoms: _561  and  _562
REMARK  241  A    between atoms: _561  and  _564
REMARK  242  A    between atoms: _564  and  _565
REMARK  243  A    between atoms: _565  and  _566
REMARK  244  A    between atoms: _569  and  _570
REMARK  245  A    between atoms: _575  and  _577
REMARK  246  A    between atoms: _577  and  _578
REMARK  247  A    between atoms: _577  and  _580
REMARK  248  A    between atoms: _580  and  _581
REMARK  249  A    between atoms: _584  and  _586
REMARK  250  A    between atoms: _586  and  _587
REMARK  251  A    between atoms: _586  and  _589
REMARK  252  A    between atoms: _589  and  _590
REMARK  253  A    between atoms: _593  and  _595
REMARK  254  A    between atoms: _595  and  _596
REMARK  255  A    between atoms: _595  and  _598
REMARK  256  A    between atoms: _598  and  _599
REMARK  257  A    between atoms: _599  and  _600
REMARK  258  A    between atoms: _600  and  _601
REMARK  259  A    between atoms: _610  and  _612
REMARK  260  A    between atoms: _612  and  _613
REMARK  261  A    between atoms: _612  and  _615
REMARK  262  A    between atoms: _615  and  _616
REMARK  263  A    between atoms: _616  and  _617
REMARK  264  A    between atoms: _619  and  _621
REMARK  265  A    between atoms: _621  and  _622
REMARK  266  A    between atoms: _621  and  _624
REMARK  267  A    between atoms: _624  and  _625
REMARK                            x       y       z     vdW  Elec       q    Type
REMARK                         _______ _______ _______ _____ _____    ______ ____
ROOT
ATOM      1  O   HOH     1      34.316  19.730  93.058  0.00  0.00    +0.000 OA
ENDROOT
TORSDOF 0
REMARK  Name = ../refined-set-2016/1fd0/1fd0_pocket.pdb
REMARK  267 active torsions:
REMARK  status: ('A' for Active; 'I' for Inactive)
REMARK    1  A    between atoms: _1  and  _3
REMARK    2  A    between atoms: _3  and  _4
REMARK    3  A    between atoms: _3  and  _6
REMARK    4  A    between atoms: _6  and  _7
REMARK    5  A    between atoms: _10  and  _12
REMARK    6  A    between atoms: _12  and  _13
REMARK    7  A    between atoms: _12  and  _15
REMARK    8  A    between atoms: _15  and  _16
REMARK    9  A    between atoms: _23  and  _24
REMARK   10  A    between atoms: _29  and  _31
REMARK   11  A    between atoms: _31  and  _32
REMARK   12  A    between atoms: _31  and  _34
REMARK   13  A    between atoms: _34  and  _35
REMARK   14  A    between atoms: _38  and  _40
REMARK   15  A    between atoms: _40  and  _41
REMARK   16  A    between atoms: _40  and  _43
REMARK   17  A    between atoms: _43  and  _44
REMARK   18  A    between atoms: _47  and  _49
REMARK   19  A    between atoms: _49  and  _50
REMARK   20  A    between atoms: _49  and  _52
REMARK   21  A    between atoms: _52  and  _53
REMARK   22  A    between atoms: _63  and  _65
REMARK   23  A    between atoms: _65  and  _66
REMARK   24  A    between atoms: _65  and  _68
REMARK   25  A    between atoms: _68  and  _69
REMARK   26  A    between atoms: _69  and  _70
REMARK   27  A    between atoms: _70  and  _71
REMARK   28  A    between atoms: _71  and  _72
REMARK   29  A    between atoms: _76  and  _78
REMARK   30  A    between atoms: _78  and  _79
REMARK   31  A    between atoms: _78  and  _81
REMARK   32  A    between atoms: _81  and  _82
REMARK   33  A    between atoms: _88  and  _90
REMARK   34  A    between atoms: _90  and  _91
REMARK   35  A    between atoms: _90  and  _93
REMARK   36  A    between atoms: _93  and  _94
REMARK   37  A    between atoms: _96  and  _98
REMARK   38  A    between atoms: _98  and  _99
REMARK   39  A    between atoms: _98  and  _101
REMARK   40  A    between atoms: _101  and  _102
REMARK   41  A    between atoms: _102  and  _103
REMARK   42  A    between atoms: _106  and  _108
REMARK   43  A    between atoms: _108  and  _109
REMARK   44  A    between atoms: _108  and  _111
REMARK   45  A    between atoms: _111  and  _112
REMARK   46  A    between atoms: _115  and  _117
REMARK   47  A    between atoms: _117  and  _118
REMARK   48  A    between atoms: _121  and  _123
REMARK   49  A    between atoms: _123  and  _124
REMARK   50  A    between atoms: _123  and  _126
REMARK   51  A    between atoms: _126  and  _127
REMARK   52  A    between atoms: _130  and  _132
REMARK   53  A    between atoms: _132  and  _133
REMARK   54  A    between atoms: _132  and  _135
REMARK   55  A    between atoms: _135  and  _136
REMARK   56  A    between atoms: _136  and  _137
REMARK   57  A    between atoms: _137  and  _138
REMARK   58  A    between atoms: _138  and  _139
REMARK   59  A    between atoms: _143  and  _145
REMARK   60  A    between atoms: _145  and  _146
REMARK   61  A    between atoms: _145  and  _148
REMARK   62  A    between atoms: _150  and  _152
REMARK   63  A    between atoms: _152  and  _153
REMARK   64  A    between atoms: _152  and  _155
REMARK   65  A    between atoms: _155  and  _156
REMARK   66  A    between atoms: _159  and  _161
REMARK   67  A    between atoms: _161  and  _162
REMARK   68  A    between atoms: _161  and  _164
REMARK   69  A    between atoms: _164  and  _165
REMARK   70  A    between atoms: _165  and  _166
REMARK   71  A    between atoms: _166  and  _167
REMARK   72  A    between atoms: _167  and  _168
REMARK   73  A    between atoms: _172  and  _174
REMARK   74  A    between atoms: _174  and  _175
REMARK   75  A    between atoms: _174  and  _177
REMARK   76  A    between atoms: _177  and  _178
REMARK   77  A    between atoms: _181  and  _183
REMARK   78  A    between atoms: _183  and  _184
REMARK   79  A    between atoms: _183  and  _186
REMARK   80  A    between atoms: _188  and  _190
REMARK   81  A    between atoms: _190  and  _191
REMARK   82  A    between atoms: _190  and  _193
REMARK   83  A    between atoms: _193  and  _194
REMARK   84  A    between atoms: _197  and  _199
REMARK   85  A    between atoms: _199  and  _200
REMARK   86  A    between atoms: _199  and  _202
REMARK   87  A    between atoms: _202  and  _203
REMARK   88  A    between atoms: _206  and  _208
REMARK   89  A    between atoms: _208  and  _209
REMARK   90  A    between atoms: _208  and  _211
REMARK   91  A    between atoms: _211  and  _212
REMARK   92  A    between atoms: _215  and  _217
REMARK   93  A    between atoms: _217  and  _218
REMARK   94  A    between atoms: _217  and  _220
REMARK   95  A    between atoms: _220  and  _221
REMARK   96  A    between atoms: _224  and  _226
REMARK   97  A    between atoms: _226  and  _227
REMARK   98  A    between atoms: _226  and  _229
REMARK   99  A    between atoms: _229  and  _230
REMARK  100  A    between atoms: _230  and  _231
REMARK  101  A    between atoms: _233  and  _235
REMARK  102  A    between atoms: _235  and  _236
REMARK  103  A    between atoms: _235  and  _238
REMARK  104  A    between atoms: _238  and  _239
REMARK  105  A    between atoms: _242  and  _244
REMARK  106  A    between atoms: _244  and  _245
REMARK  107  A    between atoms: _244  and  _247
REMARK  108  A    between atoms: _247  and  _248
REMARK  109  A    between atoms: _248  and  _249
REMARK  110  A    between atoms: _249  and  _250
REMARK  111  A    between atoms: _259  and  _261
REMARK  112  A    between atoms: _261  and  _262
REMARK  113  A    between atoms: _261  and  _264
REMARK  114  A    between atoms: _264  and  _265
REMARK  115  A    between atoms: _268  and  _270
REMARK  116  A    between atoms: _270  and  _271
REMARK  117  A    between atoms: _270  and  _273
REMARK  118  A    between atoms: _275  and  _277
REMARK  119  A    between atoms: _277  and  _278
REMARK  120  A    between atoms: _277  and  _280
REMARK  121  A    between atoms: _280  and  _281
REMARK  122  A    between atoms: _284  and  _286
REMARK  123  A    between atoms: _286  and  _287
REMARK  124  A    between atoms: _286  and  _289
REMARK  125  A    between atoms: _289  and  _290
REMARK  126  A    between atoms: _290  and  _291
REMARK  127  A    between atoms: _291  and  _292
REMARK  128  A    between atoms: _301  and  _303
REMARK  129  A    between atoms: _303  and  _304
REMARK  130  A    between atoms: _303  and  _306
REMARK  131  A    between atoms: _306  and  _307
REMARK  132  A    between atoms: _307  and  _308
REMARK  133  A    between atoms: _310  and  _312
REMARK  134  A    between atoms: _312  and  _313
REMARK  135  A    between atoms: _312  and  _315
REMARK  136  A    between atoms: _315  and  _316
REMARK  137  A    between atoms: _319  and  _321
REMARK  138  A    between atoms: _321  and  _322
REMARK  139  A    between atoms: _321  and  _324
REMARK  140  A    between atoms: _324  and  _325
REMARK  141  A    between atoms: _331  and  _333
REMARK  142  A    between atoms: _333  and  _334
REMARK  143  A    between atoms: _333  and  _336
REMARK  144  A    between atoms: _336  and  _337
REMARK  145  A    between atoms: _339  and  _341
REMARK  146  A    between atoms: _341  and  _342
REMARK  147  A    between atoms: _341  and  _344
REMARK  148  A    between atoms: _344  and  _345
REMARK  149  A    between atoms: _348  and  _350
REMARK  150  A    between atoms: _350  and  _351
REMARK  151  A    between atoms: _353  and  _355
REMARK  152  A    between atoms: _355  and  _356
REMARK  153  A    between atoms: _355  and  _358
REMARK  154  A    between atoms: _358  and  _359
REMARK  155  A    between atoms: _362  and  _364
REMARK  156  A    between atoms: _364  and  _365
REMARK  157  A    between atoms: _364  and  _367
REMARK  158  A    between atoms: _367  and  _368
REMARK  159  A    between atoms: _368  and  _369
REMARK  160  A    between atoms: _371  and  _373
REMARK  161  A    between atoms: _373  and  _374
REMARK  162  A    between atoms: _373  and  _376
REMARK  163  A    between atoms: _376  and  _377
REMARK  164  A    between atoms: _382  and  _384
REMARK  165  A    between atoms: _384  and  _385
REMARK  166  A    between atoms: _388  and  _390
REMARK  167  A    between atoms: _390  and  _391
REMARK  168  A    between atoms: _393  and  _395
REMARK  169  A    between atoms: _395  and  _396
REMARK  170  A    between atoms: _395  and  _398
REMARK  171  A    between atoms: _398  and  _399
REMARK  172  A    between atoms: _405  and  _407
REMARK  173  A    between atoms: _407  and  _408
REMARK  174  A    between atoms: _410  and  _412
REMARK  175  A    between atoms: _412  and  _413
REMARK  176  A    between atoms: _412  and  _415
REMARK  177  A    between atoms: _415  and  _416
REMARK  178  A    between atoms: _419  and  _421
REMARK  179  A    between atoms: _421  and  _422
REMARK  180  A    between atoms: _421  and  _424
REMARK  181  A    between atoms: _424  and  _425
REMARK  182  A    between atoms: _428  and  _430
REMARK  183  A    between atoms: _430  and  _431
REMARK  184  A    between atoms: _430  and  _433
REMARK  185  A    between atoms: _436  and  _438
REMARK  186  A    between atoms: _438  and  _439
REMARK  187  A    between atoms: _438  and  _441
REMARK  188  A    between atoms: _441  and  _442
REMARK  189  A    between atoms: _445  and  _447
REMARK  190  A    between atoms: _447  and  _448
REMARK  191  A    between atoms: _447  and  _450
REMARK  192  A    between atoms: _450  and  _451
REMARK  193  A    between atoms: _453  and  _455
REMARK  194  A    between atoms: _455  and  _456
REMARK  195  A    between atoms: _455  and  _458
REMARK  196  A    between atoms: _458  and  _459
REMARK  197  A    between atoms: _459  and  _460
REMARK  198  A    between atoms: _460  and  _461
REMARK  199  A    between atoms: _461  and  _462
REMARK  200  A    between atoms: _466  and  _468
REMARK  201  A    between atoms: _468  and  _469
REMARK  202  A    between atoms: _471  and  _473
REMARK  203  A    between atoms: _473  and  _474
REMARK  204  A    between atoms: _477  and  _479
REMARK  205  A    between atoms: _479  and  _480
REMARK  206  A    between atoms: _479  and  _482
REMARK  207  A    between atoms: _483  and  _484
REMARK  208  A    between atoms: _487  and  _489
REMARK  209  A    between atoms: _489  and  _490
REMARK  210  A    between atoms: _489  and  _492
REMARK  211  A    between atoms: _492  and  _493
REMARK  212  A    between atoms: _493  and  _494
REMARK  213  A    between atoms: _494  and  _495
REMARK  214  A    between atoms: _504  and  _506
REMARK  215  A    between atoms: _506  and  _507
REMARK  216  A    between atoms: _510  and  _512
REMARK  217  A    between atoms: _512  and  _513
REMARK  218  A    between atoms: _512  and  _515
REMARK  219  A    between atoms: _515  and  _516
REMARK  220  A    between atoms: _519  and  _521
REMARK  221  A    between atoms: _521  and  _522
REMARK  222  A    between atoms: _521  and  _524
REMARK  223  A    between atoms: _524  and  _525
REMARK  224  A    between atoms: _528  and  _530
REMARK  225  A    between atoms: _530  and  _531
REMARK  226  A    between atoms: _530  and  _533
REMARK  227  A    between atoms: _533  and  _534
REMARK  228  A    between atoms: _537  and  _539
REMARK  229  A    between atoms: _539  and  _540
REMARK  230  A    between atoms: _539  and  _542
REMARK  231  A    between atoms: _542  and  _543
REMARK  232  A    between atoms: _543  and  _544
REMARK  233  A    between atoms: _544  and  _545
REMARK  234  A    between atoms: _545  and  _546
REMARK  235  A    between atoms: _550  and  _552
REMARK  236  A    between atoms: _552  and  _553
REMARK  237  A    between atoms: _552  and  _555
REMARK  238  A    between atoms: _555  and  _556
REMARK  239  A    between atoms: _559  and  _561
REMARK  240  A    between atoms: _561  and  _562
REMARK  241  A    between atoms: _561  and  _564
REMARK  242  A    between atoms: _564  and  _565
REMARK  243  A    between atoms: _565  and  _566
REMARK  244  A    between atoms: _569  and  _570
REMARK  245  A    between atoms: _575  and  _577
REMARK  246  A    between atoms: _577  and  _578
REMARK  247  A    between atoms: _577  and  _580
REMARK  248  A    between atoms: _580  and  _581
REMARK  249  A    between atoms: _584  and  _586
REMARK  250  A    between atoms: _586  and  _587
REMARK  251  A    between atoms: _586  and  _589
REMARK  252  A    between atoms: _589  and  _590
REMARK  253  A    between atoms: _593  and  _595
REMARK  254  A    between atoms: _595  and  _596
REMARK  255  A    between atoms: _595  and  _598
REMARK  256  A    between atoms: _598  and  _599
REMARK  257  A    between atoms: _599  and  _600
REMARK  258  A    between atoms: _600  and  _601
REMARK  259  A    between atoms: _610  and  _612
REMARK  260  A    between atoms: _612  and  _613
REMARK  261  A    between atoms: _612  and  _615
REMARK  262  A    between atoms: _615  and  _616
REMARK  263  A    between atoms: _616  and  _617
REMARK  264  A    between atoms: _619  and  _621
REMARK  265  A    between atoms: _621  and  _622
REMARK  266  A    between atoms: _621  and  _624
REMARK  267  A    between atoms: _624  and  _625
REMARK                            x       y       z     vdW  Elec       q    Type
REMARK                         _______ _______ _______ _____ _____    ______ ____
ROOT
ATOM      1  O   HOH     1      46.255   6.333  77.296  0.00  0.00    +0.000 OA
ENDROOT
TORSDOF 0
REMARK  Name = ../refined-set-2016/1fd0/1fd0_pocket.pdb
REMARK  267 active torsions:
REMARK  status: ('A' for Active; 'I' for Inactive)
REMARK    1  A    between atoms: _1  and  _3
REMARK    2  A    between atoms: _3  and  _4
REMARK    3  A    between atoms: _3  and  _6
REMARK    4  A    between atoms: _6  and  _7
REMARK    5  A    between atoms: _10  and  _12
REMARK    6  A    between atoms: _12  and  _13
REMARK    7  A    between atoms: _12  and  _15
REMARK    8  A    between atoms: _15  and  _16
REMARK    9  A    between atoms: _23  and  _24
REMARK   10  A    between atoms: _29  and  _31
REMARK   11  A    between atoms: _31  and  _32
REMARK   12  A    between atoms: _31  and  _34
REMARK   13  A    between atoms: _34  and  _35
REMARK   14  A    between atoms: _38  and  _40
REMARK   15  A    between atoms: _40  and  _41
REMARK   16  A    between atoms: _40  and  _43
REMARK   17  A    between atoms: _43  and  _44
REMARK   18  A    between atoms: _47  and  _49
REMARK   19  A    between atoms: _49  and  _50
REMARK   20  A    between atoms: _49  and  _52
REMARK   21  A    between atoms: _52  and  _53
REMARK   22  A    between atoms: _63  and  _65
REMARK   23  A    between atoms: _65  and  _66
REMARK   24  A    between atoms: _65  and  _68
REMARK   25  A    between atoms: _68  and  _69
REMARK   26  A    between atoms: _69  and  _70
REMARK   27  A    between atoms: _70  and  _71
REMARK   28  A    between atoms: _71  and  _72
REMARK   29  A    between atoms: _76  and  _78
REMARK   30  A    between atoms: _78  and  _79
REMARK   31  A    between atoms: _78  and  _81
REMARK   32  A    between atoms: _81  and  _82
REMARK   33  A    between atoms: _88  and  _90
REMARK   34  A    between atoms: _90  and  _91
REMARK   35  A    between atoms: _90  and  _93
REMARK   36  A    between atoms: _93  and  _94
REMARK   37  A    between atoms: _96  and  _98
REMARK   38  A    between atoms: _98  and  _99
REMARK   39  A    between atoms: _98  and  _101
REMARK   40  A    between atoms: _101  and  _102
REMARK   41  A    between atoms: _102  and  _103
REMARK   42  A    between atoms: _106  and  _108
REMARK   43  A    between atoms: _108  and  _109
REMARK   44  A    between atoms: _108  and  _111
REMARK   45  A    between atoms: _111  and  _112
REMARK   46  A    between atoms: _115  and  _117
REMARK   47  A    between atoms: _117  and  _118
REMARK   48  A    between atoms: _121  and  _123
REMARK   49  A    between atoms: _123  and  _124
REMARK   50  A    between atoms: _123  and  _126
REMARK   51  A    between atoms: _126  and  _127
REMARK   52  A    between atoms: _130  and  _132
REMARK   53  A    between atoms: _132  and  _133
REMARK   54  A    between atoms: _132  and  _135
REMARK   55  A    between atoms: _135  and  _136
REMARK   56  A    between atoms: _136  and  _137
REMARK   57  A    between atoms: _137  and  _138
REMARK   58  A    between atoms: _138  and  _139
REMARK   59  A    between atoms: _143  and  _145
REMARK   60  A    between atoms: _145  and  _146
REMARK   61  A    between atoms: _145  and  _148
REMARK   62  A    between atoms: _150  and  _152
REMARK   63  A    between atoms: _152  and  _153
REMARK   64  A    between atoms: _152  and  _155
REMARK   65  A    between atoms: _155  and  _156
REMARK   66  A    between atoms: _159  and  _161
REMARK   67  A    between atoms: _161  and  _162
REMARK   68  A    between atoms: _161  and  _164
REMARK   69  A    between atoms: _164  and  _165
REMARK   70  A    between atoms: _165  and  _166
REMARK   71  A    between atoms: _166  and  _167
REMARK   72  A    between atoms: _167  and  _168
REMARK   73  A    between atoms: _172  and  _174
REMARK   74  A    between atoms: _174  and  _175
REMARK   75  A    between atoms: _174  and  _177
REMARK   76  A    between atoms: _177  and  _178
REMARK   77  A    between atoms: _181  and  _183
REMARK   78  A    between atoms: _183  and  _184
REMARK   79  A    between atoms: _183  and  _186
REMARK   80  A    between atoms: _188  and  _190
REMARK   81  A    between atoms: _190  and  _191
REMARK   82  A    between atoms: _190  and  _193
REMARK   83  A    between atoms: _193  and  _194
REMARK   84  A    between atoms: _197  and  _199
REMARK   85  A    between atoms: _199  and  _200
REMARK   86  A    between atoms: _199  and  _202
REMARK   87  A    between atoms: _202  and  _203
REMARK   88  A    between atoms: _206  and  _208
REMARK   89  A    between atoms: _208  and  _209
REMARK   90  A    between atoms: _208  and  _211
REMARK   91  A    between atoms: _211  and  _212
REMARK   92  A    between atoms: _215  and  _217
REMARK   93  A    between atoms: _217  and  _218
REMARK   94  A    between atoms: _217  and  _220
REMARK   95  A    between atoms: _220  and  _221
REMARK   96  A    between atoms: _224  and  _226
REMARK   97  A    between atoms: _226  and  _227
REMARK   98  A    between atoms: _226  and  _229
REMARK   99  A    between atoms: _229  and  _230
REMARK  100  A    between atoms: _230  and  _231
REMARK  101  A    between atoms: _233  and  _235
REMARK  102  A    between atoms: _235  and  _236
REMARK  103  A    between atoms: _235  and  _238
REMARK  104  A    between atoms: _238  and  _239
REMARK  105  A    between atoms: _242  and  _244
REMARK  106  A    between atoms: _244  and  _245
REMARK  107  A    between atoms: _244  and  _247
REMARK  108  A    between atoms: _247  and  _248
REMARK  109  A    between atoms: _248  and  _249
REMARK  110  A    between atoms: _249  and  _250
REMARK  111  A    between atoms: _259  and  _261
REMARK  112  A    between atoms: _261  and  _262
REMARK  113  A    between atoms: _261  and  _264
REMARK  114  A    between atoms: _264  and  _265
REMARK  115  A    between atoms: _268  and  _270
REMARK  116  A    between atoms: _270  and  _271
REMARK  117  A    between atoms: _270  and  _273
REMARK  118  A    between atoms: _275  and  _277
REMARK  119  A    between atoms: _277  and  _278
REMARK  120  A    between atoms: _277  and  _280
REMARK  121  A    between atoms: _280  and  _281
REMARK  122  A    between atoms: _284  and  _286
REMARK  123  A    between atoms: _286  and  _287
REMARK  124  A    between atoms: _286  and  _289
REMARK  125  A    between atoms: _289  and  _290
REMARK  126  A    between atoms: _290  and  _291
REMARK  127  A    between atoms: _291  and  _292
REMARK  128  A    between atoms: _301  and  _303
REMARK  129  A    between atoms: _303  and  _304
REMARK  130  A    between atoms: _303  and  _306
REMARK  131  A    between atoms: _306  and  _307
REMARK  132  A    between atoms: _307  and  _308
REMARK  133  A    between atoms: _310  and  _312
REMARK  134  A    between atoms: _312  and  _313
REMARK  135  A    between atoms: _312  and  _315
REMARK  136  A    between atoms: _315  and  _316
REMARK  137  A    between atoms: _319  and  _321
REMARK  138  A    between atoms: _321  and  _322
REMARK  139  A    between atoms: _321  and  _324
REMARK  140  A    between atoms: _324  and  _325
REMARK  141  A    between atoms: _331  and  _333
REMARK  142  A    between atoms: _333  and  _334
REMARK  143  A    between atoms: _333  and  _336
REMARK  144  A    between atoms: _336  and  _337
REMARK  145  A    between atoms: _339  and  _341
REMARK  146  A    between atoms: _341  and  _342
REMARK  147  A    between atoms: _341  and  _344
REMARK  148  A    between atoms: _344  and  _345
REMARK  149  A    between atoms: _348  and  _350
REMARK  150  A    between atoms: _350  and  _351
REMARK  151  A    between atoms: _353  and  _355
REMARK  152  A    between atoms: _355  and  _356
REMARK  153  A    between atoms: _355  and  _358
REMARK  154  A    between atoms: _358  and  _359
REMARK  155  A    between atoms: _362  and  _364
REMARK  156  A    between atoms: _364  and  _365
REMARK  157  A    between atoms: _364  and  _367
REMARK  158  A    between atoms: _367  and  _368
REMARK  159  A    between atoms: _368  and  _369
REMARK  160  A    between atoms: _371  and  _373
REMARK  161  A    between atoms: _373  and  _374
REMARK  162  A    between atoms: _373  and  _376
REMARK  163  A    between atoms: _376  and  _377
REMARK  164  A    between atoms: _382  and  _384
REMARK  165  A    between atoms: _384  and  _385
REMARK  166  A    between atoms: _388  and  _390
REMARK  167  A    between atoms: _390  and  _391
REMARK  168  A    between atoms: _393  and  _395
REMARK  169  A    between atoms: _395  and  _396
REMARK  170  A    between atoms: _395  and  _398
REMARK  171  A    between atoms: _398  and  _399
REMARK  172  A    between atoms: _405  and  _407
REMARK  173  A    between atoms: _407  and  _408
REMARK  174  A    between atoms: _410  and  _412
REMARK  175  A    between atoms: _412  and  _413
REMARK  176  A    between atoms: _412  and  _415
REMARK  177  A    between atoms: _415  and  _416
REMARK  178  A    between atoms: _419  and  _421
REMARK  179  A    between atoms: _421  and  _422
REMARK  180  A    between atoms: _421  and  _424
REMARK  181  A    between atoms: _424  and  _425
REMARK  182  A    between atoms: _428  and  _430
REMARK  183  A    between atoms: _430  and  _431
REMARK  184  A    between atoms: _430  and  _433
REMARK  185  A    between atoms: _436  and  _438
REMARK  186  A    between atoms: _438  and  _439
REMARK  187  A    between atoms: _438  and  _441
REMARK  188  A    between atoms: _441  and  _442
REMARK  189  A    between atoms: _445  and  _447
REMARK  190  A    between atoms: _447  and  _448
REMARK  191  A    between atoms: _447  and  _450
REMARK  192  A    between atoms: _450  and  _451
REMARK  193  A    between atoms: _453  and  _455
REMARK  194  A    between atoms: _455  and  _456
REMARK  195  A    between atoms: _455  and  _458
REMARK  196  A    between atoms: _458  and  _459
REMARK  197  A    between atoms: _459  and  _460
REMARK  198  A    between atoms: _460  and  _461
REMARK  199  A    between atoms: _461  and  _462
REMARK  200  A    between atoms: _466  and  _468
REMARK  201  A    between atoms: _468  and  _469
REMARK  202  A    between atoms: _471  and  _473
REMARK  203  A    between atoms: _473  and  _474
REMARK  204  A    between atoms: _477  and  _479
REMARK  205  A    between atoms: _479  and  _480
REMARK  206  A    between atoms: _479  and  _482
REMARK  207  A    between atoms: _483  and  _484
REMARK  208  A    between atoms: _487  and  _489
REMARK  209  A    between atoms: _489  and  _490
REMARK  210  A    between atoms: _489  and  _492
REMARK  211  A    between atoms: _492  and  _493
REMARK  212  A    between atoms: _493  and  _494
REMARK  213  A    between atoms: _494  and  _495
REMARK  214  A    between atoms: _504  and  _506
REMARK  215  A    between atoms: _506  and  _507
REMARK  216  A    between atoms: _510  and  _512
REMARK  217  A    between atoms: _512  and  _513
REMARK  218  A    between atoms: _512  and  _515
REMARK  219  A    between atoms: _515  and  _516
REMARK  220  A    between atoms: _519  and  _521
REMARK  221  A    between atoms: _521  and  _522
REMARK  222  A    between atoms: _521  and  _524
REMARK  223  A    between atoms: _524  and  _525
REMARK  224  A    between atoms: _528  and  _530
REMARK  225  A    between atoms: _530  and  _531
REMARK  226  A    between atoms: _530  and  _533
REMARK  227  A    between atoms: _533  and  _534
REMARK  228  A    between atoms: _537  and  _539
REMARK  229  A    between atoms: _539  and  _540
REMARK  230  A    between atoms: _539  and  _542
REMARK  231  A    between atoms: _542  and  _543
REMARK  232  A    between atoms: _543  and  _544
REMARK  233  A    between atoms: _544  and  _545
REMARK  234  A    between atoms: _545  and  _546
REMARK  235  A    between atoms: _550  and  _552
REMARK  236  A    between atoms: _552  and  _553
REMARK  237  A    between atoms: _552  and  _555
REMARK  238  A    between atoms: _555  and  _556
REMARK  239  A    between atoms: _559  and  _561
REMARK  240  A    between atoms: _561  and  _562
REMARK  241  A    between atoms: _561  and  _564
REMARK  242  A    between atoms: _564  and  _565
REMARK  243  A    between atoms: _565  and  _566
REMARK  244  A    between atoms: _569  and  _570
REMARK  245  A    between atoms: _575  and  _577
REMARK  246  A    between atoms: _577  and  _578
REMARK  247  A    between atoms: _577  and  _580
REMARK  248  A    between atoms: _580  and  _581
REMARK  249  A    between atoms: _584  and  _586
REMARK  250  A    between atoms: _586  and  _587
REMARK  251  A    between atoms: _586  and  _589
REMARK  252  A    between atoms: _589  and  _590
REMARK  253  A    between atoms: _593  and  _595
REMARK  254  A    between atoms: _595  and  _596
REMARK  255  A    between atoms: _595  and  _598
REMARK  256  A    between atoms: _598  and  _599
REMARK  257  A    between atoms: _599  and  _600
REMARK  258  A    between atoms: _600  and  _601
REMARK  259  A    between atoms: _610  and  _612
REMARK  260  A    between atoms: _612  and  _613
REMARK  261  A    between atoms: _612  and  _615
REMARK  262  A    between atoms: _615  and  _616
REMARK  263  A    between atoms: _616  and  _617
REMARK  264  A    between atoms: _619  and  _621
REMARK  265  A    between atoms: _621  and  _622
REMARK  266  A    between atoms: _621  and  _624
REMARK  267  A    between atoms: _624  and  _625
REMARK                            x       y       z     vdW  Elec       q    Type
REMARK                         _______ _______ _______ _____ _____    ______ ____
ROOT
ATOM      1  O   HOH     1      35.737  21.486  91.463  0.00  0.00    +0.000 OA
ENDROOT
TORSDOF 0
REMARK  Name = ../refined-set-2016/1fd0/1fd0_pocket.pdb
REMARK  267 active torsions:
REMARK  status: ('A' for Active; 'I' for Inactive)
REMARK    1  A    between atoms: _1  and  _3
REMARK    2  A    between atoms: _3  and  _4
REMARK    3  A    between atoms: _3  and  _6
REMARK    4  A    between atoms: _6  and  _7
REMARK    5  A    between atoms: _10  and  _12
REMARK    6  A    between atoms: _12  and  _13
REMARK    7  A    between atoms: _12  and  _15
REMARK    8  A    between atoms: _15  and  _16
REMARK    9  A    between atoms: _23  and  _24
REMARK   10  A    between atoms: _29  and  _31
REMARK   11  A    between atoms: _31  and  _32
REMARK   12  A    between atoms: _31  and  _34
REMARK   13  A    between atoms: _34  and  _35
REMARK   14  A    between atoms: _38  and  _40
REMARK   15  A    between atoms: _40  and  _41
REMARK   16  A    between atoms: _40  and  _43
REMARK   17  A    between atoms: _43  and  _44
REMARK   18  A    between atoms: _47  and  _49
REMARK   19  A    between atoms: _49  and  _50
REMARK   20  A    between atoms: _49  and  _52
REMARK   21  A    between atoms: _52  and  _53
REMARK   22  A    between atoms: _63  and  _65
REMARK   23  A    between atoms: _65  and  _66
REMARK   24  A    between atoms: _65  and  _68
REMARK   25  A    between atoms: _68  and  _69
REMARK   26  A    between atoms: _69  and  _70
REMARK   27  A    between atoms: _70  and  _71
REMARK   28  A    between atoms: _71  and  _72
REMARK   29  A    between atoms: _76  and  _78
REMARK   30  A    between atoms: _78  and  _79
REMARK   31  A    between atoms: _78  and  _81
REMARK   32  A    between atoms: _81  and  _82
REMARK   33  A    between atoms: _88  and  _90
REMARK   34  A    between atoms: _90  and  _91
REMARK   35  A    between atoms: _90  and  _93
REMARK   36  A    between atoms: _93  and  _94
REMARK   37  A    between atoms: _96  and  _98
REMARK   38  A    between atoms: _98  and  _99
REMARK   39  A    between atoms: _98  and  _101
REMARK   40  A    between atoms: _101  and  _102
REMARK   41  A    between atoms: _102  and  _103
REMARK   42  A    between atoms: _106  and  _108
REMARK   43  A    between atoms: _108  and  _109
REMARK   44  A    between atoms: _108  and  _111
REMARK   45  A    between atoms: _111  and  _112
REMARK   46  A    between atoms: _115  and  _117
REMARK   47  A    between atoms: _117  and  _118
REMARK   48  A    between atoms: _121  and  _123
REMARK   49  A    between atoms: _123  and  _124
REMARK   50  A    between atoms: _123  and  _126
REMARK   51  A    between atoms: _126  and  _127
REMARK   52  A    between atoms: _130  and  _132
REMARK   53  A    between atoms: _132  and  _133
REMARK   54  A    between atoms: _132  and  _135
REMARK   55  A    between atoms: _135  and  _136
REMARK   56  A    between atoms: _136  and  _137
REMARK   57  A    between atoms: _137  and  _138
REMARK   58  A    between atoms: _138  and  _139
REMARK   59  A    between atoms: _143  and  _145
REMARK   60  A    between atoms: _145  and  _146
REMARK   61  A    between atoms: _145  and  _148
REMARK   62  A    between atoms: _150  and  _152
REMARK   63  A    between atoms: _152  and  _153
REMARK   64  A    between atoms: _152  and  _155
REMARK   65  A    between atoms: _155  and  _156
REMARK   66  A    between atoms: _159  and  _161
REMARK   67  A    between atoms: _161  and  _162
REMARK   68  A    between atoms: _161  and  _164
REMARK   69  A    between atoms: _164  and  _165
REMARK   70  A    between atoms: _165  and  _166
REMARK   71  A    between atoms: _166  and  _167
REMARK   72  A    between atoms: _167  and  _168
REMARK   73  A    between atoms: _172  and  _174
REMARK   74  A    between atoms: _174  and  _175
REMARK   75  A    between atoms: _174  and  _177
REMARK   76  A    between atoms: _177  and  _178
REMARK   77  A    between atoms: _181  and  _183
REMARK   78  A    between atoms: _183  and  _184
REMARK   79  A    between atoms: _183  and  _186
REMARK   80  A    between atoms: _188  and  _190
REMARK   81  A    between atoms: _190  and  _191
REMARK   82  A    between atoms: _190  and  _193
REMARK   83  A    between atoms: _193  and  _194
REMARK   84  A    between atoms: _197  and  _199
REMARK   85  A    between atoms: _199  and  _200
REMARK   86  A    between atoms: _199  and  _202
REMARK   87  A    between atoms: _202  and  _203
REMARK   88  A    between atoms: _206  and  _208
REMARK   89  A    between atoms: _208  and  _209
REMARK   90  A    between atoms: _208  and  _211
REMARK   91  A    between atoms: _211  and  _212
REMARK   92  A    between atoms: _215  and  _217
REMARK   93  A    between atoms: _217  and  _218
REMARK   94  A    between atoms: _217  and  _220
REMARK   95  A    between atoms: _220  and  _221
REMARK   96  A    between atoms: _224  and  _226
REMARK   97  A    between atoms: _226  and  _227
REMARK   98  A    between atoms: _226  and  _229
REMARK   99  A    between atoms: _229  and  _230
REMARK  100  A    between atoms: _230  and  _231
REMARK  101  A    between atoms: _233  and  _235
REMARK  102  A    between atoms: _235  and  _236
REMARK  103  A    between atoms: _235  and  _238
REMARK  104  A    between atoms: _238  and  _239
REMARK  105  A    between atoms: _242  and  _244
REMARK  106  A    between atoms: _244  and  _245
REMARK  107  A    between atoms: _244  and  _247
REMARK  108  A    between atoms: _247  and  _248
REMARK  109  A    between atoms: _248  and  _249
REMARK  110  A    between atoms: _249  and  _250
REMARK  111  A    between atoms: _259  and  _261
REMARK  112  A    between atoms: _261  and  _262
REMARK  113  A    between atoms: _261  and  _264
REMARK  114  A    between atoms: _264  and  _265
REMARK  115  A    between atoms: _268  and  _270
REMARK  116  A    between atoms: _270  and  _271
REMARK  117  A    between atoms: _270  and  _273
REMARK  118  A    between atoms: _275  and  _277
REMARK  119  A    between atoms: _277  and  _278
REMARK  120  A    between atoms: _277  and  _280
REMARK  121  A    between atoms: _280  and  _281
REMARK  122  A    between atoms: _284  and  _286
REMARK  123  A    between atoms: _286  and  _287
REMARK  124  A    between atoms: _286  and  _289
REMARK  125  A    between atoms: _289  and  _290
REMARK  126  A    between atoms: _290  and  _291
REMARK  127  A    between atoms: _291  and  _292
REMARK  128  A    between atoms: _301  and  _303
REMARK  129  A    between atoms: _303  and  _304
REMARK  130  A    between atoms: _303  and  _306
REMARK  131  A    between atoms: _306  and  _307
REMARK  132  A    between atoms: _307  and  _308
REMARK  133  A    between atoms: _310  and  _312
REMARK  134  A    between atoms: _312  and  _313
REMARK  135  A    between atoms: _312  and  _315
REMARK  136  A    between atoms: _315  and  _316
REMARK  137  A    between atoms: _319  and  _321
REMARK  138  A    between atoms: _321  and  _322
REMARK  139  A    between atoms: _321  and  _324
REMARK  140  A    between atoms: _324  and  _325
REMARK  141  A    between atoms: _331  and  _333
REMARK  142  A    between atoms: _333  and  _334
REMARK  143  A    between atoms: _333  and  _336
REMARK  144  A    between atoms: _336  and  _337
REMARK  145  A    between atoms: _339  and  _341
REMARK  146  A    between atoms: _341  and  _342
REMARK  147  A    between atoms: _341  and  _344
REMARK  148  A    between atoms: _344  and  _345
REMARK  149  A    between atoms: _348  and  _350
REMARK  150  A    between atoms: _350  and  _351
REMARK  151  A    between atoms: _353  and  _355
REMARK  152  A    between atoms: _355  and  _356
REMARK  153  A    between atoms: _355  and  _358
REMARK  154  A    between atoms: _358  and  _359
REMARK  155  A    between atoms: _362  and  _364
REMARK  156  A    between atoms: _364  and  _365
REMARK  157  A    between atoms: _364  and  _367
REMARK  158  A    between atoms: _367  and  _368
REMARK  159  A    between atoms: _368  and  _369
REMARK  160  A    between atoms: _371  and  _373
REMARK  161  A    between atoms: _373  and  _374
REMARK  162  A    between atoms: _373  and  _376
REMARK  163  A    between atoms: _376  and  _377
REMARK  164  A    between atoms: _382  and  _384
REMARK  165  A    between atoms: _384  and  _385
REMARK  166  A    between atoms: _388  and  _390
REMARK  167  A    between atoms: _390  and  _391
REMARK  168  A    between atoms: _393  and  _395
REMARK  169  A    between atoms: _395  and  _396
REMARK  170  A    between atoms: _395  and  _398
REMARK  171  A    between atoms: _398  and  _399
REMARK  172  A    between atoms: _405  and  _407
REMARK  173  A    between atoms: _407  and  _408
REMARK  174  A    between atoms: _410  and  _412
REMARK  175  A    between atoms: _412  and  _413
REMARK  176  A    between atoms: _412  and  _415
REMARK  177  A    between atoms: _415  and  _416
REMARK  178  A    between atoms: _419  and  _421
REMARK  179  A    between atoms: _421  and  _422
REMARK  180  A    between atoms: _421  and  _424
REMARK  181  A    between atoms: _424  and  _425
REMARK  182  A    between atoms: _428  and  _430
REMARK  183  A    between atoms: _430  and  _431
REMARK  184  A    between atoms: _430  and  _433
REMARK  185  A    between atoms: _436  and  _438
REMARK  186  A    between atoms: _438  and  _439
REMARK  187  A    between atoms: _438  and  _441
REMARK  188  A    between atoms: _441  and  _442
REMARK  189  A    between atoms: _445  and  _447
REMARK  190  A    between atoms: _447  and  _448
REMARK  191  A    between atoms: _447  and  _450
REMARK  192  A    between atoms: _450  and  _451
REMARK  193  A    between atoms: _453  and  _455
REMARK  194  A    between atoms: _455  and  _456
REMARK  195  A    between atoms: _455  and  _458
REMARK  196  A    between atoms: _458  and  _459
REMARK  197  A    between atoms: _459  and  _460
REMARK  198  A    between atoms: _460  and  _461
REMARK  199  A    between atoms: _461  and  _462
REMARK  200  A    between atoms: _466  and  _468
REMARK  201  A    between atoms: _468  and  _469
REMARK  202  A    between atoms: _471  and  _473
REMARK  203  A    between atoms: _473  and  _474
REMARK  204  A    between atoms: _477  and  _479
REMARK  205  A    between atoms: _479  and  _480
REMARK  206  A    between atoms: _479  and  _482
REMARK  207  A    between atoms: _483  and  _484
REMARK  208  A    between atoms: _487  and  _489
REMARK  209  A    between atoms: _489  and  _490
REMARK  210  A    between atoms: _489  and  _492
REMARK  211  A    between atoms: _492  and  _493
REMARK  212  A    between atoms: _493  and  _494
REMARK  213  A    between atoms: _494  and  _495
REMARK  214  A    between atoms: _504  and  _506
REMARK  215  A    between atoms: _506  and  _507
REMARK  216  A    between atoms: _510  and  _512
REMARK  217  A    between atoms: _512  and  _513
REMARK  218  A    between atoms: _512  and  _515
REMARK  219  A    between atoms: _515  and  _516
REMARK  220  A    between atoms: _519  and  _521
REMARK  221  A    between atoms: _521  and  _522
REMARK  222  A    between atoms: _521  and  _524
REMARK  223  A    between atoms: _524  and  _525
REMARK  224  A    between atoms: _528  and  _530
REMARK  225  A    between atoms: _530  and  _531
REMARK  226  A    between atoms: _530  and  _533
REMARK  227  A    between atoms: _533  and  _534
REMARK  228  A    between atoms: _537  and  _539
REMARK  229  A    between atoms: _539  and  _540
REMARK  230  A    between atoms: _539  and  _542
REMARK  231  A    between atoms: _542  and  _543
REMARK  232  A    between atoms: _543  and  _544
REMARK  233  A    between atoms: _544  and  _545
REMARK  234  A    between atoms: _545  and  _546
REMARK  235  A    between atoms: _550  and  _552
REMARK  236  A    between atoms: _552  and  _553
REMARK  237  A    between atoms: _552  and  _555
REMARK  238  A    between atoms: _555  and  _556
REMARK  239  A    between atoms: _559  and  _561
REMARK  240  A    between atoms: _561  and  _562
REMARK  241  A    between atoms: _561  and  _564
REMARK  242  A    between atoms: _564  and  _565
REMARK  243  A    between atoms: _565  and  _566
REMARK  244  A    between atoms: _569  and  _570
REMARK  245  A    between atoms: _575  and  _577
REMARK  246  A    between atoms: _577  and  _578
REMARK  247  A    between atoms: _577  and  _580
REMARK  248  A    between atoms: _580  and  _581
REMARK  249  A    between atoms: _584  and  _586
REMARK  250  A    between atoms: _586  and  _587
REMARK  251  A    between atoms: _586  and  _589
REMARK  252  A    between atoms: _589  and  _590
REMARK  253  A    between atoms: _593  and  _595
REMARK  254  A    between atoms: _595  and  _596
REMARK  255  A    between atoms: _595  and  _598
REMARK  256  A    between atoms: _598  and  _599
REMARK  257  A    between atoms: _599  and  _600
REMARK  258  A    between atoms: _600  and  _601
REMARK  259  A    between atoms: _610  and  _612
REMARK  260  A    between atoms: _612  and  _613
REMARK  261  A    between atoms: _612  and  _615
REMARK  262  A    between atoms: _615  and  _616
REMARK  263  A    between atoms: _616  and  _617
REMARK  264  A    between atoms: _619  and  _621
REMARK  265  A    between atoms: _621  and  _622
REMARK  266  A    between atoms: _621  and  _624
REMARK  267  A    between atoms: _624  and  _625
REMARK                            x       y       z     vdW  Elec       q    Type
REMARK                         _______ _______ _______ _____ _____    ______ ____
ROOT
ATOM      1  O   HOH     1      52.744  11.675  84.557  0.00  0.00    +0.000 OA
ENDROOT
TORSDOF 0
REMARK  Name = ../refined-set-2016/1fd0/1fd0_pocket.pdb
REMARK  267 active torsions:
REMARK  status: ('A' for Active; 'I' for Inactive)
REMARK    1  A    between atoms: _1  and  _3
REMARK    2  A    between atoms: _3  and  _4
REMARK    3  A    between atoms: _3  and  _6
REMARK    4  A    between atoms: _6  and  _7
REMARK    5  A    between atoms: _10  and  _12
REMARK    6  A    between atoms: _12  and  _13
REMARK    7  A    between atoms: _12  and  _15
REMARK    8  A    between atoms: _15  and  _16
REMARK    9  A    between atoms: _23  and  _24
REMARK   10  A    between atoms: _29  and  _31
REMARK   11  A    between atoms: _31  and  _32
REMARK   12  A    between atoms: _31  and  _34
REMARK   13  A    between atoms: _34  and  _35
REMARK   14  A    between atoms: _38  and  _40
REMARK   15  A    between atoms: _40  and  _41
REMARK   16  A    between atoms: _40  and  _43
REMARK   17  A    between atoms: _43  and  _44
REMARK   18  A    between atoms: _47  and  _49
REMARK   19  A    between atoms: _49  and  _50
REMARK   20  A    between atoms: _49  and  _52
REMARK   21  A    between atoms: _52  and  _53
REMARK   22  A    between atoms: _63  and  _65
REMARK   23  A    between atoms: _65  and  _66
REMARK   24  A    between atoms: _65  and  _68
REMARK   25  A    between atoms: _68  and  _69
REMARK   26  A    between atoms: _69  and  _70
REMARK   27  A    between atoms: _70  and  _71
REMARK   28  A    between atoms: _71  and  _72
REMARK   29  A    between atoms: _76  and  _78
REMARK   30  A    between atoms: _78  and  _79
REMARK   31  A    between atoms: _78  and  _81
REMARK   32  A    between atoms: _81  and  _82
REMARK   33  A    between atoms: _88  and  _90
REMARK   34  A    between atoms: _90  and  _91
REMARK   35  A    between atoms: _90  and  _93
REMARK   36  A    between atoms: _93  and  _94
REMARK   37  A    between atoms: _96  and  _98
REMARK   38  A    between atoms: _98  and  _99
REMARK   39  A    between atoms: _98  and  _101
REMARK   40  A    between atoms: _101  and  _102
REMARK   41  A    between atoms: _102  and  _103
REMARK   42  A    between atoms: _106  and  _108
REMARK   43  A    between atoms: _108  and  _109
REMARK   44  A    between atoms: _108  and  _111
REMARK   45  A    between atoms: _111  and  _112
REMARK   46  A    between atoms: _115  and  _117
REMARK   47  A    between atoms: _117  and  _118
REMARK   48  A    between atoms: _121  and  _123
REMARK   49  A    between atoms: _123  and  _124
REMARK   50  A    between atoms: _123  and  _126
REMARK   51  A    between atoms: _126  and  _127
REMARK   52  A    between atoms: _130  and  _132
REMARK   53  A    between atoms: _132  and  _133
REMARK   54  A    between atoms: _132  and  _135
REMARK   55  A    between atoms: _135  and  _136
REMARK   56  A    between atoms: _136  and  _137
REMARK   57  A    between atoms: _137  and  _138
REMARK   58  A    between atoms: _138  and  _139
REMARK   59  A    between atoms: _143  and  _145
REMARK   60  A    between atoms: _145  and  _146
REMARK   61  A    between atoms: _145  and  _148
REMARK   62  A    between atoms: _150  and  _152
REMARK   63  A    between atoms: _152  and  _153
REMARK   64  A    between atoms: _152  and  _155
REMARK   65  A    between atoms: _155  and  _156
REMARK   66  A    between atoms: _159  and  _161
REMARK   67  A    between atoms: _161  and  _162
REMARK   68  A    between atoms: _161  and  _164
REMARK   69  A    between atoms: _164  and  _165
REMARK   70  A    between atoms: _165  and  _166
REMARK   71  A    between atoms: _166  and  _167
REMARK   72  A    between atoms: _167  and  _168
REMARK   73  A    between atoms: _172  and  _174
REMARK   74  A    between atoms: _174  and  _175
REMARK   75  A    between atoms: _174  and  _177
REMARK   76  A    between atoms: _177  and  _178
REMARK   77  A    between atoms: _181  and  _183
REMARK   78  A    between atoms: _183  and  _184
REMARK   79  A    between atoms: _183  and  _186
REMARK   80  A    between atoms: _188  and  _190
REMARK   81  A    between atoms: _190  and  _191
REMARK   82  A    between atoms: _190  and  _193
REMARK   83  A    between atoms: _193  and  _194
REMARK   84  A    between atoms: _197  and  _199
REMARK   85  A    between atoms: _199  and  _200
REMARK   86  A    between atoms: _199  and  _202
REMARK   87  A    between atoms: _202  and  _203
REMARK   88  A    between atoms: _206  and  _208
REMARK   89  A    between atoms: _208  and  _209
REMARK   90  A    between atoms: _208  and  _211
REMARK   91  A    between atoms: _211  and  _212
REMARK   92  A    between atoms: _215  and  _217
REMARK   93  A    between atoms: _217  and  _218
REMARK   94  A    between atoms: _217  and  _220
REMARK   95  A    between atoms: _220  and  _221
REMARK   96  A    between atoms: _224  and  _226
REMARK   97  A    between atoms: _226  and  _227
REMARK   98  A    between atoms: _226  and  _229
REMARK   99  A    between atoms: _229  and  _230
REMARK  100  A    between atoms: _230  and  _231
REMARK  101  A    between atoms: _233  and  _235
REMARK  102  A    between atoms: _235  and  _236
REMARK  103  A    between atoms: _235  and  _238
REMARK  104  A    between atoms: _238  and  _239
REMARK  105  A    between atoms: _242  and  _244
REMARK  106  A    between atoms: _244  and  _245
REMARK  107  A    between atoms: _244  and  _247
REMARK  108  A    between atoms: _247  and  _248
REMARK  109  A    between atoms: _248  and  _249
REMARK  110  A    between atoms: _249  and  _250
REMARK  111  A    between atoms: _259  and  _261
REMARK  112  A    between atoms: _261  and  _262
REMARK  113  A    between atoms: _261  and  _264
REMARK  114  A    between atoms: _264  and  _265
REMARK  115  A    between atoms: _268  and  _270
REMARK  116  A    between atoms: _270  and  _271
REMARK  117  A    between atoms: _270  and  _273
REMARK  118  A    between atoms: _275  and  _277
REMARK  119  A    between atoms: _277  and  _278
REMARK  120  A    between atoms: _277  and  _280
REMARK  121  A    between atoms: _280  and  _281
REMARK  122  A    between atoms: _284  and  _286
REMARK  123  A    between atoms: _286  and  _287
REMARK  124  A    between atoms: _286  and  _289
REMARK  125  A    between atoms: _289  and  _290
REMARK  126  A    between atoms: _290  and  _291
REMARK  127  A    between atoms: _291  and  _292
REMARK  128  A    between atoms: _301  and  _303
REMARK  129  A    between atoms: _303  and  _304
REMARK  130  A    between atoms: _303  and  _306
REMARK  131  A    between atoms: _306  and  _307
REMARK  132  A    between atoms: _307  and  _308
REMARK  133  A    between atoms: _310  and  _312
REMARK  134  A    between atoms: _312  and  _313
REMARK  135  A    between atoms: _312  and  _315
REMARK  136  A    between atoms: _315  and  _316
REMARK  137  A    between atoms: _319  and  _321
REMARK  138  A    between atoms: _321  and  _322
REMARK  139  A    between atoms: _321  and  _324
REMARK  140  A    between atoms: _324  and  _325
REMARK  141  A    between atoms: _331  and  _333
REMARK  142  A    between atoms: _333  and  _334
REMARK  143  A    between atoms: _333  and  _336
REMARK  144  A    between atoms: _336  and  _337
REMARK  145  A    between atoms: _339  and  _341
REMARK  146  A    between atoms: _341  and  _342
REMARK  147  A    between atoms: _341  and  _344
REMARK  148  A    between atoms: _344  and  _345
REMARK  149  A    between atoms: _348  and  _350
REMARK  150  A    between atoms: _350  and  _351
REMARK  151  A    between atoms: _353  and  _355
REMARK  152  A    between atoms: _355  and  _356
REMARK  153  A    between atoms: _355  and  _358
REMARK  154  A    between atoms: _358  and  _359
REMARK  155  A    between atoms: _362  and  _364
REMARK  156  A    between atoms: _364  and  _365
REMARK  157  A    between atoms: _364  and  _367
REMARK  158  A    between atoms: _367  and  _368
REMARK  159  A    between atoms: _368  and  _369
REMARK  160  A    between atoms: _371  and  _373
REMARK  161  A    between atoms: _373  and  _374
REMARK  162  A    between atoms: _373  and  _376
REMARK  163  A    between atoms: _376  and  _377
REMARK  164  A    between atoms: _382  and  _384
REMARK  165  A    between atoms: _384  and  _385
REMARK  166  A    between atoms: _388  and  _390
REMARK  167  A    between atoms: _390  and  _391
REMARK  168  A    between atoms: _393  and  _395
REMARK  169  A    between atoms: _395  and  _396
REMARK  170  A    between atoms: _395  and  _398
REMARK  171  A    between atoms: _398  and  _399
REMARK  172  A    between atoms: _405  and  _407
REMARK  173  A    between atoms: _407  and  _408
REMARK  174  A    between atoms: _410  and  _412
REMARK  175  A    between atoms: _412  and  _413
REMARK  176  A    between atoms: _412  and  _415
REMARK  177  A    between atoms: _415  and  _416
REMARK  178  A    between atoms: _419  and  _421
REMARK  179  A    between atoms: _421  and  _422
REMARK  180  A    between atoms: _421  and  _424
REMARK  181  A    between atoms: _424  and  _425
REMARK  182  A    between atoms: _428  and  _430
REMARK  183  A    between atoms: _430  and  _431
REMARK  184  A    between atoms: _430  and  _433
REMARK  185  A    between atoms: _436  and  _438
REMARK  186  A    between atoms: _438  and  _439
REMARK  187  A    between atoms: _438  and  _441
REMARK  188  A    between atoms: _441  and  _442
REMARK  189  A    between atoms: _445  and  _447
REMARK  190  A    between atoms: _447  and  _448
REMARK  191  A    between atoms: _447  and  _450
REMARK  192  A    between atoms: _450  and  _451
REMARK  193  A    between atoms: _453  and  _455
REMARK  194  A    between atoms: _455  and  _456
REMARK  195  A    between atoms: _455  and  _458
REMARK  196  A    between atoms: _458  and  _459
REMARK  197  A    between atoms: _459  and  _460
REMARK  198  A    between atoms: _460  and  _461
REMARK  199  A    between atoms: _461  and  _462
REMARK  200  A    between atoms: _466  and  _468
REMARK  201  A    between atoms: _468  and  _469
REMARK  202  A    between atoms: _471  and  _473
REMARK  203  A    between atoms: _473  and  _474
REMARK  204  A    between atoms: _477  and  _479
REMARK  205  A    between atoms: _479  and  _480
REMARK  206  A    between atoms: _479  and  _482
REMARK  207  A    between atoms: _483  and  _484
REMARK  208  A    between atoms: _487  and  _489
REMARK  209  A    between atoms: _489  and  _490
REMARK  210  A    between atoms: _489  and  _492
REMARK  211  A    between atoms: _492  and  _493
REMARK  212  A    between atoms: _493  and  _494
REMARK  213  A    between atoms: _494  and  _495
REMARK  214  A    between atoms: _504  and  _506
REMARK  215  A    between atoms: _506  and  _507
REMARK  216  A    between atoms: _510  and  _512
REMARK  217  A    between atoms: _512  and  _513
REMARK  218  A    between atoms: _512  and  _515
REMARK  219  A    between atoms: _515  and  _516
REMARK  220  A    between atoms: _519  and  _521
REMARK  221  A    between atoms: _521  and  _522
REMARK  222  A    between atoms: _521  and  _524
REMARK  223  A    between atoms: _524  and  _525
REMARK  224  A    between atoms: _528  and  _530
REMARK  225  A    between atoms: _530  and  _531
REMARK  226  A    between atoms: _530  and  _533
REMARK  227  A    between atoms: _533  and  _534
REMARK  228  A    between atoms: _537  and  _539
REMARK  229  A    between atoms: _539  and  _540
REMARK  230  A    between atoms: _539  and  _542
REMARK  231  A    between atoms: _542  and  _543
REMARK  232  A    between atoms: _543  and  _544
REMARK  233  A    between atoms: _544  and  _545
REMARK  234  A    between atoms: _545  and  _546
REMARK  235  A    between atoms: _550  and  _552
REMARK  236  A    between atoms: _552  and  _553
REMARK  237  A    between atoms: _552  and  _555
REMARK  238  A    between atoms: _555  and  _556
REMARK  239  A    between atoms: _559  and  _561
REMARK  240  A    between atoms: _561  and  _562
REMARK  241  A    between atoms: _561  and  _564
REMARK  242  A    between atoms: _564  and  _565
REMARK  243  A    between atoms: _565  and  _566
REMARK  244  A    between atoms: _569  and  _570
REMARK  245  A    between atoms: _575  and  _577
REMARK  246  A    between atoms: _577  and  _578
REMARK  247  A    between atoms: _577  and  _580
REMARK  248  A    between atoms: _580  and  _581
REMARK  249  A    between atoms: _584  and  _586
REMARK  250  A    between atoms: _586  and  _587
REMARK  251  A    between atoms: _586  and  _589
REMARK  252  A    between atoms: _589  and  _590
REMARK  253  A    between atoms: _593  and  _595
REMARK  254  A    between atoms: _595  and  _596
REMARK  255  A    between atoms: _595  and  _598
REMARK  256  A    between atoms: _598  and  _599
REMARK  257  A    between atoms: _599  and  _600
REMARK  258  A    between atoms: _600  and  _601
REMARK  259  A    between atoms: _610  and  _612
REMARK  260  A    between atoms: _612  and  _613
REMARK  261  A    between atoms: _612  and  _615
REMARK  262  A    between atoms: _615  and  _616
REMARK  263  A    between atoms: _616  and  _617
REMARK  264  A    between atoms: _619  and  _621
REMARK  265  A    between atoms: _621  and  _622
REMARK  266  A    between atoms: _621  and  _624
REMARK  267  A    between atoms: _624  and  _625
REMARK                            x       y       z     vdW  Elec       q    Type
REMARK                         _______ _______ _______ _____ _____    ______ ____
ROOT
ATOM      1  O   HOH     1      32.279  22.419  93.753  0.00  0.00    +0.000 OA
ENDROOT
TORSDOF 0
REMARK  Name = ../refined-set-2016/1fd0/1fd0_pocket.pdb
REMARK  267 active torsions:
REMARK  status: ('A' for Active; 'I' for Inactive)
REMARK    1  A    between atoms: _1  and  _3
REMARK    2  A    between atoms: _3  and  _4
REMARK    3  A    between atoms: _3  and  _6
REMARK    4  A    between atoms: _6  and  _7
REMARK    5  A    between atoms: _10  and  _12
REMARK    6  A    between atoms: _12  and  _13
REMARK    7  A    between atoms: _12  and  _15
REMARK    8  A    between atoms: _15  and  _16
REMARK    9  A    between atoms: _23  and  _24
REMARK   10  A    between atoms: _29  and  _31
REMARK   11  A    between atoms: _31  and  _32
REMARK   12  A    between atoms: _31  and  _34
REMARK   13  A    between atoms: _34  and  _35
REMARK   14  A    between atoms: _38  and  _40
REMARK   15  A    between atoms: _40  and  _41
REMARK   16  A    between atoms: _40  and  _43
REMARK   17  A    between atoms: _43  and  _44
REMARK   18  A    between atoms: _47  and  _49
REMARK   19  A    between atoms: _49  and  _50
REMARK   20  A    between atoms: _49  and  _52
REMARK   21  A    between atoms: _52  and  _53
REMARK   22  A    between atoms: _63  and  _65
REMARK   23  A    between atoms: _65  and  _66
REMARK   24  A    between atoms: _65  and  _68
REMARK   25  A    between atoms: _68  and  _69
REMARK   26  A    between atoms: _69  and  _70
REMARK   27  A    between atoms: _70  and  _71
REMARK   28  A    between atoms: _71  and  _72
REMARK   29  A    between atoms: _76  and  _78
REMARK   30  A    between atoms: _78  and  _79
REMARK   31  A    between atoms: _78  and  _81
REMARK   32  A    between atoms: _81  and  _82
REMARK   33  A    between atoms: _88  and  _90
REMARK   34  A    between atoms: _90  and  _91
REMARK   35  A    between atoms: _90  and  _93
REMARK   36  A    between atoms: _93  and  _94
REMARK   37  A    between atoms: _96  and  _98
REMARK   38  A    between atoms: _98  and  _99
REMARK   39  A    between atoms: _98  and  _101
REMARK   40  A    between atoms: _101  and  _102
REMARK   41  A    between atoms: _102  and  _103
REMARK   42  A    between atoms: _106  and  _108
REMARK   43  A    between atoms: _108  and  _109
REMARK   44  A    between atoms: _108  and  _111
REMARK   45  A    between atoms: _111  and  _112
REMARK   46  A    between atoms: _115  and  _117
REMARK   47  A    between atoms: _117  and  _118
REMARK   48  A    between atoms: _121  and  _123
REMARK   49  A    between atoms: _123  and  _124
REMARK   50  A    between atoms: _123  and  _126
REMARK   51  A    between atoms: _126  and  _127
REMARK   52  A    between atoms: _130  and  _132
REMARK   53  A    between atoms: _132  and  _133
REMARK   54  A    between atoms: _132  and  _135
REMARK   55  A    between atoms: _135  and  _136
REMARK   56  A    between atoms: _136  and  _137
REMARK   57  A    between atoms: _137  and  _138
REMARK   58  A    between atoms: _138  and  _139
REMARK   59  A    between atoms: _143  and  _145
REMARK   60  A    between atoms: _145  and  _146
REMARK   61  A    between atoms: _145  and  _148
REMARK   62  A    between atoms: _150  and  _152
REMARK   63  A    between atoms: _152  and  _153
REMARK   64  A    between atoms: _152  and  _155
REMARK   65  A    between atoms: _155  and  _156
REMARK   66  A    between atoms: _159  and  _161
REMARK   67  A    between atoms: _161  and  _162
REMARK   68  A    between atoms: _161  and  _164
REMARK   69  A    between atoms: _164  and  _165
REMARK   70  A    between atoms: _165  and  _166
REMARK   71  A    between atoms: _166  and  _167
REMARK   72  A    between atoms: _167  and  _168
REMARK   73  A    between atoms: _172  and  _174
REMARK   74  A    between atoms: _174  and  _175
REMARK   75  A    between atoms: _174  and  _177
REMARK   76  A    between atoms: _177  and  _178
REMARK   77  A    between atoms: _181  and  _183
REMARK   78  A    between atoms: _183  and  _184
REMARK   79  A    between atoms: _183  and  _186
REMARK   80  A    between atoms: _188  and  _190
REMARK   81  A    between atoms: _190  and  _191
REMARK   82  A    between atoms: _190  and  _193
REMARK   83  A    between atoms: _193  and  _194
REMARK   84  A    between atoms: _197  and  _199
REMARK   85  A    between atoms: _199  and  _200
REMARK   86  A    between atoms: _199  and  _202
REMARK   87  A    between atoms: _202  and  _203
REMARK   88  A    between atoms: _206  and  _208
REMARK   89  A    between atoms: _208  and  _209
REMARK   90  A    between atoms: _208  and  _211
REMARK   91  A    between atoms: _211  and  _212
REMARK   92  A    between atoms: _215  and  _217
REMARK   93  A    between atoms: _217  and  _218
REMARK   94  A    between atoms: _217  and  _220
REMARK   95  A    between atoms: _220  and  _221
REMARK   96  A    between atoms: _224  and  _226
REMARK   97  A    between atoms: _226  and  _227
REMARK   98  A    between atoms: _226  and  _229
REMARK   99  A    between atoms: _229  and  _230
REMARK  100  A    between atoms: _230  and  _231
REMARK  101  A    between atoms: _233  and  _235
REMARK  102  A    between atoms: _235  and  _236
REMARK  103  A    between atoms: _235  and  _238
REMARK  104  A    between atoms: _238  and  _239
REMARK  105  A    between atoms: _242  and  _244
REMARK  106  A    between atoms: _244  and  _245
REMARK  107  A    between atoms: _244  and  _247
REMARK  108  A    between atoms: _247  and  _248
REMARK  109  A    between atoms: _248  and  _249
REMARK  110  A    between atoms: _249  and  _250
REMARK  111  A    between atoms: _259  and  _261
REMARK  112  A    between atoms: _261  and  _262
REMARK  113  A    between atoms: _261  and  _264
REMARK  114  A    between atoms: _264  and  _265
REMARK  115  A    between atoms: _268  and  _270
REMARK  116  A    between atoms: _270  and  _271
REMARK  117  A    between atoms: _270  and  _273
REMARK  118  A    between atoms: _275  and  _277
REMARK  119  A    between atoms: _277  and  _278
REMARK  120  A    between atoms: _277  and  _280
REMARK  121  A    between atoms: _280  and  _281
REMARK  122  A    between atoms: _284  and  _286
REMARK  123  A    between atoms: _286  and  _287
REMARK  124  A    between atoms: _286  and  _289
REMARK  125  A    between atoms: _289  and  _290
REMARK  126  A    between atoms: _290  and  _291
REMARK  127  A    between atoms: _291  and  _292
REMARK  128  A    between atoms: _301  and  _303
REMARK  129  A    between atoms: _303  and  _304
REMARK  130  A    between atoms: _303  and  _306
REMARK  131  A    between atoms: _306  and  _307
REMARK  132  A    between atoms: _307  and  _308
REMARK  133  A    between atoms: _310  and  _312
REMARK  134  A    between atoms: _312  and  _313
REMARK  135  A    between atoms: _312  and  _315
REMARK  136  A    between atoms: _315  and  _316
REMARK  137  A    between atoms: _319  and  _321
REMARK  138  A    between atoms: _321  and  _322
REMARK  139  A    between atoms: _321  and  _324
REMARK  140  A    between atoms: _324  and  _325
REMARK  141  A    between atoms: _331  and  _333
REMARK  142  A    between atoms: _333  and  _334
REMARK  143  A    between atoms: _333  and  _336
REMARK  144  A    between atoms: _336  and  _337
REMARK  145  A    between atoms: _339  and  _341
REMARK  146  A    between atoms: _341  and  _342
REMARK  147  A    between atoms: _341  and  _344
REMARK  148  A    between atoms: _344  and  _345
REMARK  149  A    between atoms: _348  and  _350
REMARK  150  A    between atoms: _350  and  _351
REMARK  151  A    between atoms: _353  and  _355
REMARK  152  A    between atoms: _355  and  _356
REMARK  153  A    between atoms: _355  and  _358
REMARK  154  A    between atoms: _358  and  _359
REMARK  155  A    between atoms: _362  and  _364
REMARK  156  A    between atoms: _364  and  _365
REMARK  157  A    between atoms: _364  and  _367
REMARK  158  A    between atoms: _367  and  _368
REMARK  159  A    between atoms: _368  and  _369
REMARK  160  A    between atoms: _371  and  _373
REMARK  161  A    between atoms: _373  and  _374
REMARK  162  A    between atoms: _373  and  _376
REMARK  163  A    between atoms: _376  and  _377
REMARK  164  A    between atoms: _382  and  _384
REMARK  165  A    between atoms: _384  and  _385
REMARK  166  A    between atoms: _388  and  _390
REMARK  167  A    between atoms: _390  and  _391
REMARK  168  A    between atoms: _393  and  _395
REMARK  169  A    between atoms: _395  and  _396
REMARK  170  A    between atoms: _395  and  _398
REMARK  171  A    between atoms: _398  and  _399
REMARK  172  A    between atoms: _405  and  _407
REMARK  173  A    between atoms: _407  and  _408
REMARK  174  A    between atoms: _410  and  _412
REMARK  175  A    between atoms: _412  and  _413
REMARK  176  A    between atoms: _412  and  _415
REMARK  177  A    between atoms: _415  and  _416
REMARK  178  A    between atoms: _419  and  _421
REMARK  179  A    between atoms: _421  and  _422
REMARK  180  A    between atoms: _421  and  _424
REMARK  181  A    between atoms: _424  and  _425
REMARK  182  A    between atoms: _428  and  _430
REMARK  183  A    between atoms: _430  and  _431
REMARK  184  A    between atoms: _430  and  _433
REMARK  185  A    between atoms: _436  and  _438
REMARK  186  A    between atoms: _438  and  _439
REMARK  187  A    between atoms: _438  and  _441
REMARK  188  A    between atoms: _441  and  _442
REMARK  189  A    between atoms: _445  and  _447
REMARK  190  A    between atoms: _447  and  _448
REMARK  191  A    between atoms: _447  and  _450
REMARK  192  A    between atoms: _450  and  _451
REMARK  193  A    between atoms: _453  and  _455
REMARK  194  A    between atoms: _455  and  _456
REMARK  195  A    between atoms: _455  and  _458
REMARK  196  A    between atoms: _458  and  _459
REMARK  197  A    between atoms: _459  and  _460
REMARK  198  A    between atoms: _460  and  _461
REMARK  199  A    between atoms: _461  and  _462
REMARK  200  A    between atoms: _466  and  _468
REMARK  201  A    between atoms: _468  and  _469
REMARK  202  A    between atoms: _471  and  _473
REMARK  203  A    between atoms: _473  and  _474
REMARK  204  A    between atoms: _477  and  _479
REMARK  205  A    between atoms: _479  and  _480
REMARK  206  A    between atoms: _479  and  _482
REMARK  207  A    between atoms: _483  and  _484
REMARK  208  A    between atoms: _487  and  _489
REMARK  209  A    between atoms: _489  and  _490
REMARK  210  A    between atoms: _489  and  _492
REMARK  211  A    between atoms: _492  and  _493
REMARK  212  A    between atoms: _493  and  _494
REMARK  213  A    between atoms: _494  and  _495
REMARK  214  A    between atoms: _504  and  _506
REMARK  215  A    between atoms: _506  and  _507
REMARK  216  A    between atoms: _510  and  _512
REMARK  217  A    between atoms: _512  and  _513
REMARK  218  A    between atoms: _512  and  _515
REMARK  219  A    between atoms: _515  and  _516
REMARK  220  A    between atoms: _519  and  _521
REMARK  221  A    between atoms: _521  and  _522
REMARK  222  A    between atoms: _521  and  _524
REMARK  223  A    between atoms: _524  and  _525
REMARK  224  A    between atoms: _528  and  _530
REMARK  225  A    between atoms: _530  and  _531
REMARK  226  A    between atoms: _530  and  _533
REMARK  227  A    between atoms: _533  and  _534
REMARK  228  A    between atoms: _537  and  _539
REMARK  229  A    between atoms: _539  and  _540
REMARK  230  A    between atoms: _539  and  _542
REMARK  231  A    between atoms: _542  and  _543
REMARK  232  A    between atoms: _543  and  _544
REMARK  233  A    between atoms: _544  and  _545
REMARK  234  A    between atoms: _545  and  _546
REMARK  235  A    between atoms: _550  and  _552
REMARK  236  A    between atoms: _552  and  _553
REMARK  237  A    between atoms: _552  and  _555
REMARK  238  A    between atoms: _555  and  _556
REMARK  239  A    between atoms: _559  and  _561
REMARK  240  A    between atoms: _561  and  _562
REMARK  241  A    between atoms: _561  and  _564
REMARK  242  A    between atoms: _564  and  _565
REMARK  243  A    between atoms: _565  and  _566
REMARK  244  A    between atoms: _569  and  _570
REMARK  245  A    between atoms: _575  and  _577
REMARK  246  A    between atoms: _577  and  _578
REMARK  247  A    between atoms: _577  and  _580
REMARK  248  A    between atoms: _580  and  _581
REMARK  249  A    between atoms: _584  and  _586
REMARK  250  A    between atoms: _586  and  _587
REMARK  251  A    between atoms: _586  and  _589
REMARK  252  A    between atoms: _589  and  _590
REMARK  253  A    between atoms: _593  and  _595
REMARK  254  A    between atoms: _595  and  _596
REMARK  255  A    between atoms: _595  and  _598
REMARK  256  A    between atoms: _598  and  _599
REMARK  257  A    between atoms: _599  and  _600
REMARK  258  A    between atoms: _600  and  _601
REMARK  259  A    between atoms: _610  and  _612
REMARK  260  A    between atoms: _612  and  _613
REMARK  261  A    between atoms: _612  and  _615
REMARK  262  A    between atoms: _615  and  _616
REMARK  263  A    between atoms: _616  and  _617
REMARK  264  A    between atoms: _619  and  _621
REMARK  265  A    between atoms: _621  and  _622
REMARK  266  A    between atoms: _621  and  _624
REMARK  267  A    between atoms: _624  and  _625
REMARK                            x       y       z     vdW  Elec       q    Type
REMARK                         _______ _______ _______ _____ _____    ______ ____
ROOT
ATOM      1  O   HOH     1      35.576  21.454  88.646  0.00  0.00    +0.000 OA
ENDROOT
TORSDOF 0
REMARK  Name = ../refined-set-2016/1fd0/1fd0_pocket.pdb
REMARK  267 active torsions:
REMARK  status: ('A' for Active; 'I' for Inactive)
REMARK    1  A    between atoms: _1  and  _3
REMARK    2  A    between atoms: _3  and  _4
REMARK    3  A    between atoms: _3  and  _6
REMARK    4  A    between atoms: _6  and  _7
REMARK    5  A    between atoms: _10  and  _12
REMARK    6  A    between atoms: _12  and  _13
REMARK    7  A    between atoms: _12  and  _15
REMARK    8  A    between atoms: _15  and  _16
REMARK    9  A    between atoms: _23  and  _24
REMARK   10  A    between atoms: _29  and  _31
REMARK   11  A    between atoms: _31  and  _32
REMARK   12  A    between atoms: _31  and  _34
REMARK   13  A    between atoms: _34  and  _35
REMARK   14  A    between atoms: _38  and  _40
REMARK   15  A    between atoms: _40  and  _41
REMARK   16  A    between atoms: _40  and  _43
REMARK   17  A    between atoms: _43  and  _44
REMARK   18  A    between atoms: _47  and  _49
REMARK   19  A    between atoms: _49  and  _50
REMARK   20  A    between atoms: _49  and  _52
REMARK   21  A    between atoms: _52  and  _53
REMARK   22  A    between atoms: _63  and  _65
REMARK   23  A    between atoms: _65  and  _66
REMARK   24  A    between atoms: _65  and  _68
REMARK   25  A    between atoms: _68  and  _69
REMARK   26  A    between atoms: _69  and  _70
REMARK   27  A    between atoms: _70  and  _71
REMARK   28  A    between atoms: _71  and  _72
REMARK   29  A    between atoms: _76  and  _78
REMARK   30  A    between atoms: _78  and  _79
REMARK   31  A    between atoms: _78  and  _81
REMARK   32  A    between atoms: _81  and  _82
REMARK   33  A    between atoms: _88  and  _90
REMARK   34  A    between atoms: _90  and  _91
REMARK   35  A    between atoms: _90  and  _93
REMARK   36  A    between atoms: _93  and  _94
REMARK   37  A    between atoms: _96  and  _98
REMARK   38  A    between atoms: _98  and  _99
REMARK   39  A    between atoms: _98  and  _101
REMARK   40  A    between atoms: _101  and  _102
REMARK   41  A    between atoms: _102  and  _103
REMARK   42  A    between atoms: _106  and  _108
REMARK   43  A    between atoms: _108  and  _109
REMARK   44  A    between atoms: _108  and  _111
REMARK   45  A    between atoms: _111  and  _112
REMARK   46  A    between atoms: _115  and  _117
REMARK   47  A    between atoms: _117  and  _118
REMARK   48  A    between atoms: _121  and  _123
REMARK   49  A    between atoms: _123  and  _124
REMARK   50  A    between atoms: _123  and  _126
REMARK   51  A    between atoms: _126  and  _127
REMARK   52  A    between atoms: _130  and  _132
REMARK   53  A    between atoms: _132  and  _133
REMARK   54  A    between atoms: _132  and  _135
REMARK   55  A    between atoms: _135  and  _136
REMARK   56  A    between atoms: _136  and  _137
REMARK   57  A    between atoms: _137  and  _138
REMARK   58  A    between atoms: _138  and  _139
REMARK   59  A    between atoms: _143  and  _145
REMARK   60  A    between atoms: _145  and  _146
REMARK   61  A    between atoms: _145  and  _148
REMARK   62  A    between atoms: _150  and  _152
REMARK   63  A    between atoms: _152  and  _153
REMARK   64  A    between atoms: _152  and  _155
REMARK   65  A    between atoms: _155  and  _156
REMARK   66  A    between atoms: _159  and  _161
REMARK   67  A    between atoms: _161  and  _162
REMARK   68  A    between atoms: _161  and  _164
REMARK   69  A    between atoms: _164  and  _165
REMARK   70  A    between atoms: _165  and  _166
REMARK   71  A    between atoms: _166  and  _167
REMARK   72  A    between atoms: _167  and  _168
REMARK   73  A    between atoms: _172  and  _174
REMARK   74  A    between atoms: _174  and  _175
REMARK   75  A    between atoms: _174  and  _177
REMARK   76  A    between atoms: _177  and  _178
REMARK   77  A    between atoms: _181  and  _183
REMARK   78  A    between atoms: _183  and  _184
REMARK   79  A    between atoms: _183  and  _186
REMARK   80  A    between atoms: _188  and  _190
REMARK   81  A    between atoms: _190  and  _191
REMARK   82  A    between atoms: _190  and  _193
REMARK   83  A    between atoms: _193  and  _194
REMARK   84  A    between atoms: _197  and  _199
REMARK   85  A    between atoms: _199  and  _200
REMARK   86  A    between atoms: _199  and  _202
REMARK   87  A    between atoms: _202  and  _203
REMARK   88  A    between atoms: _206  and  _208
REMARK   89  A    between atoms: _208  and  _209
REMARK   90  A    between atoms: _208  and  _211
REMARK   91  A    between atoms: _211  and  _212
REMARK   92  A    between atoms: _215  and  _217
REMARK   93  A    between atoms: _217  and  _218
REMARK   94  A    between atoms: _217  and  _220
REMARK   95  A    between atoms: _220  and  _221
REMARK   96  A    between atoms: _224  and  _226
REMARK   97  A    between atoms: _226  and  _227
REMARK   98  A    between atoms: _226  and  _229
REMARK   99  A    between atoms: _229  and  _230
REMARK  100  A    between atoms: _230  and  _231
REMARK  101  A    between atoms: _233  and  _235
REMARK  102  A    between atoms: _235  and  _236
REMARK  103  A    between atoms: _235  and  _238
REMARK  104  A    between atoms: _238  and  _239
REMARK  105  A    between atoms: _242  and  _244
REMARK  106  A    between atoms: _244  and  _245
REMARK  107  A    between atoms: _244  and  _247
REMARK  108  A    between atoms: _247  and  _248
REMARK  109  A    between atoms: _248  and  _249
REMARK  110  A    between atoms: _249  and  _250
REMARK  111  A    between atoms: _259  and  _261
REMARK  112  A    between atoms: _261  and  _262
REMARK  113  A    between atoms: _261  and  _264
REMARK  114  A    between atoms: _264  and  _265
REMARK  115  A    between atoms: _268  and  _270
REMARK  116  A    between atoms: _270  and  _271
REMARK  117  A    between atoms: _270  and  _273
REMARK  118  A    between atoms: _275  and  _277
REMARK  119  A    between atoms: _277  and  _278
REMARK  120  A    between atoms: _277  and  _280
REMARK  121  A    between atoms: _280  and  _281
REMARK  122  A    between atoms: _284  and  _286
REMARK  123  A    between atoms: _286  and  _287
REMARK  124  A    between atoms: _286  and  _289
REMARK  125  A    between atoms: _289  and  _290
REMARK  126  A    between atoms: _290  and  _291
REMARK  127  A    between atoms: _291  and  _292
REMARK  128  A    between atoms: _301  and  _303
REMARK  129  A    between atoms: _303  and  _304
REMARK  130  A    between atoms: _303  and  _306
REMARK  131  A    between atoms: _306  and  _307
REMARK  132  A    between atoms: _307  and  _308
REMARK  133  A    between atoms: _310  and  _312
REMARK  134  A    between atoms: _312  and  _313
REMARK  135  A    between atoms: _312  and  _315
REMARK  136  A    between atoms: _315  and  _316
REMARK  137  A    between atoms: _319  and  _321
REMARK  138  A    between atoms: _321  and  _322
REMARK  139  A    between atoms: _321  and  _324
REMARK  140  A    between atoms: _324  and  _325
REMARK  141  A    between atoms: _331  and  _333
REMARK  142  A    between atoms: _333  and  _334
REMARK  143  A    between atoms: _333  and  _336
REMARK  144  A    between atoms: _336  and  _337
REMARK  145  A    between atoms: _339  and  _341
REMARK  146  A    between atoms: _341  and  _342
REMARK  147  A    between atoms: _341  and  _344
REMARK  148  A    between atoms: _344  and  _345
REMARK  149  A    between atoms: _348  and  _350
REMARK  150  A    between atoms: _350  and  _351
REMARK  151  A    between atoms: _353  and  _355
REMARK  152  A    between atoms: _355  and  _356
REMARK  153  A    between atoms: _355  and  _358
REMARK  154  A    between atoms: _358  and  _359
REMARK  155  A    between atoms: _362  and  _364
REMARK  156  A    between atoms: _364  and  _365
REMARK  157  A    between atoms: _364  and  _367
REMARK  158  A    between atoms: _367  and  _368
REMARK  159  A    between atoms: _368  and  _369
REMARK  160  A    between atoms: _371  and  _373
REMARK  161  A    between atoms: _373  and  _374
REMARK  162  A    between atoms: _373  and  _376
REMARK  163  A    between atoms: _376  and  _377
REMARK  164  A    between atoms: _382  and  _384
REMARK  165  A    between atoms: _384  and  _385
REMARK  166  A    between atoms: _388  and  _390
REMARK  167  A    between atoms: _390  and  _391
REMARK  168  A    between atoms: _393  and  _395
REMARK  169  A    between atoms: _395  and  _396
REMARK  170  A    between atoms: _395  and  _398
REMARK  171  A    between atoms: _398  and  _399
REMARK  172  A    between atoms: _405  and  _407
REMARK  173  A    between atoms: _407  and  _408
REMARK  174  A    between atoms: _410  and  _412
REMARK  175  A    between atoms: _412  and  _413
REMARK  176  A    between atoms: _412  and  _415
REMARK  177  A    between atoms: _415  and  _416
REMARK  178  A    between atoms: _419  and  _421
REMARK  179  A    between atoms: _421  and  _422
REMARK  180  A    between atoms: _421  and  _424
REMARK  181  A    between atoms: _424  and  _425
REMARK  182  A    between atoms: _428  and  _430
REMARK  183  A    between atoms: _430  and  _431
REMARK  184  A    between atoms: _430  and  _433
REMARK  185  A    between atoms: _436  and  _438
REMARK  186  A    between atoms: _438  and  _439
REMARK  187  A    between atoms: _438  and  _441
REMARK  188  A    between atoms: _441  and  _442
REMARK  189  A    between atoms: _445  and  _447
REMARK  190  A    between atoms: _447  and  _448
REMARK  191  A    between atoms: _447  and  _450
REMARK  192  A    between atoms: _450  and  _451
REMARK  193  A    between atoms: _453  and  _455
REMARK  194  A    between atoms: _455  and  _456
REMARK  195  A    between atoms: _455  and  _458
REMARK  196  A    between atoms: _458  and  _459
REMARK  197  A    between atoms: _459  and  _460
REMARK  198  A    between atoms: _460  and  _461
REMARK  199  A    between atoms: _461  and  _462
REMARK  200  A    between atoms: _466  and  _468
REMARK  201  A    between atoms: _468  and  _469
REMARK  202  A    between atoms: _471  and  _473
REMARK  203  A    between atoms: _473  and  _474
REMARK  204  A    between atoms: _477  and  _479
REMARK  205  A    between atoms: _479  and  _480
REMARK  206  A    between atoms: _479  and  _482
REMARK  207  A    between atoms: _483  and  _484
REMARK  208  A    between atoms: _487  and  _489
REMARK  209  A    between atoms: _489  and  _490
REMARK  210  A    between atoms: _489  and  _492
REMARK  211  A    between atoms: _492  and  _493
REMARK  212  A    between atoms: _493  and  _494
REMARK  213  A    between atoms: _494  and  _495
REMARK  214  A    between atoms: _504  and  _506
REMARK  215  A    between atoms: _506  and  _507
REMARK  216  A    between atoms: _510  and  _512
REMARK  217  A    between atoms: _512  and  _513
REMARK  218  A    between atoms: _512  and  _515
REMARK  219  A    between atoms: _515  and  _516
REMARK  220  A    between atoms: _519  and  _521
REMARK  221  A    between atoms: _521  and  _522
REMARK  222  A    between atoms: _521  and  _524
REMARK  223  A    between atoms: _524  and  _525
REMARK  224  A    between atoms: _528  and  _530
REMARK  225  A    between atoms: _530  and  _531
REMARK  226  A    between atoms: _530  and  _533
REMARK  227  A    between atoms: _533  and  _534
REMARK  228  A    between atoms: _537  and  _539
REMARK  229  A    between atoms: _539  and  _540
REMARK  230  A    between atoms: _539  and  _542
REMARK  231  A    between atoms: _542  and  _543
REMARK  232  A    between atoms: _543  and  _544
REMARK  233  A    between atoms: _544  and  _545
REMARK  234  A    between atoms: _545  and  _546
REMARK  235  A    between atoms: _550  and  _552
REMARK  236  A    between atoms: _552  and  _553
REMARK  237  A    between atoms: _552  and  _555
REMARK  238  A    between atoms: _555  and  _556
REMARK  239  A    between atoms: _559  and  _561
REMARK  240  A    between atoms: _561  and  _562
REMARK  241  A    between atoms: _561  and  _564
REMARK  242  A    between atoms: _564  and  _565
REMARK  243  A    between atoms: _565  and  _566
REMARK  244  A    between atoms: _569  and  _570
REMARK  245  A    between atoms: _575  and  _577
REMARK  246  A    between atoms: _577  and  _578
REMARK  247  A    between atoms: _577  and  _580
REMARK  248  A    between atoms: _580  and  _581
REMARK  249  A    between atoms: _584  and  _586
REMARK  250  A    between atoms: _586  and  _587
REMARK  251  A    between atoms: _586  and  _589
REMARK  252  A    between atoms: _589  and  _590
REMARK  253  A    between atoms: _593  and  _595
REMARK  254  A    between atoms: _595  and  _596
REMARK  255  A    between atoms: _595  and  _598
REMARK  256  A    between atoms: _598  and  _599
REMARK  257  A    between atoms: _599  and  _600
REMARK  258  A    between atoms: _600  and  _601
REMARK  259  A    between atoms: _610  and  _612
REMARK  260  A    between atoms: _612  and  _613
REMARK  261  A    between atoms: _612  and  _615
REMARK  262  A    between atoms: _615  and  _616
REMARK  263  A    between atoms: _616  and  _617
REMARK  264  A    between atoms: _619  and  _621
REMARK  265  A    between atoms: _621  and  _622
REMARK  266  A    between atoms: _621  and  _624
REMARK  267  A    between atoms: _624  and  _625
REMARK                            x       y       z     vdW  Elec       q    Type
REMARK                         _______ _______ _______ _____ _____    ______ ____
ROOT
ATOM      1  O   HOH     1      40.993  14.400  72.742  0.00  0.00    +0.000 OA
ENDROOT
TORSDOF 0
REMARK  Name = ../refined-set-2016/1fd0/1fd0_pocket.pdb
REMARK  267 active torsions:
REMARK  status: ('A' for Active; 'I' for Inactive)
REMARK    1  A    between atoms: _1  and  _3
REMARK    2  A    between atoms: _3  and  _4
REMARK    3  A    between atoms: _3  and  _6
REMARK    4  A    between atoms: _6  and  _7
REMARK    5  A    between atoms: _10  and  _12
REMARK    6  A    between atoms: _12  and  _13
REMARK    7  A    between atoms: _12  and  _15
REMARK    8  A    between atoms: _15  and  _16
REMARK    9  A    between atoms: _23  and  _24
REMARK   10  A    between atoms: _29  and  _31
REMARK   11  A    between atoms: _31  and  _32
REMARK   12  A    between atoms: _31  and  _34
REMARK   13  A    between atoms: _34  and  _35
REMARK   14  A    between atoms: _38  and  _40
REMARK   15  A    between atoms: _40  and  _41
REMARK   16  A    between atoms: _40  and  _43
REMARK   17  A    between atoms: _43  and  _44
REMARK   18  A    between atoms: _47  and  _49
REMARK   19  A    between atoms: _49  and  _50
REMARK   20  A    between atoms: _49  and  _52
REMARK   21  A    between atoms: _52  and  _53
REMARK   22  A    between atoms: _63  and  _65
REMARK   23  A    between atoms: _65  and  _66
REMARK   24  A    between atoms: _65  and  _68
REMARK   25  A    between atoms: _68  and  _69
REMARK   26  A    between atoms: _69  and  _70
REMARK   27  A    between atoms: _70  and  _71
REMARK   28  A    between atoms: _71  and  _72
REMARK   29  A    between atoms: _76  and  _78
REMARK   30  A    between atoms: _78  and  _79
REMARK   31  A    between atoms: _78  and  _81
REMARK   32  A    between atoms: _81  and  _82
REMARK   33  A    between atoms: _88  and  _90
REMARK   34  A    between atoms: _90  and  _91
REMARK   35  A    between atoms: _90  and  _93
REMARK   36  A    between atoms: _93  and  _94
REMARK   37  A    between atoms: _96  and  _98
REMARK   38  A    between atoms: _98  and  _99
REMARK   39  A    between atoms: _98  and  _101
REMARK   40  A    between atoms: _101  and  _102
REMARK   41  A    between atoms: _102  and  _103
REMARK   42  A    between atoms: _106  and  _108
REMARK   43  A    between atoms: _108  and  _109
REMARK   44  A    between atoms: _108  and  _111
REMARK   45  A    between atoms: _111  and  _112
REMARK   46  A    between atoms: _115  and  _117
REMARK   47  A    between atoms: _117  and  _118
REMARK   48  A    between atoms: _121  and  _123
REMARK   49  A    between atoms: _123  and  _124
REMARK   50  A    between atoms: _123  and  _126
REMARK   51  A    between atoms: _126  and  _127
REMARK   52  A    between atoms: _130  and  _132
REMARK   53  A    between atoms: _132  and  _133
REMARK   54  A    between atoms: _132  and  _135
REMARK   55  A    between atoms: _135  and  _136
REMARK   56  A    between atoms: _136  and  _137
REMARK   57  A    between atoms: _137  and  _138
REMARK   58  A    between atoms: _138  and  _139
REMARK   59  A    between atoms: _143  and  _145
REMARK   60  A    between atoms: _145  and  _146
REMARK   61  A    between atoms: _145  and  _148
REMARK   62  A    between atoms: _150  and  _152
REMARK   63  A    between atoms: _152  and  _153
REMARK   64  A    between atoms: _152  and  _155
REMARK   65  A    between atoms: _155  and  _156
REMARK   66  A    between atoms: _159  and  _161
REMARK   67  A    between atoms: _161  and  _162
REMARK   68  A    between atoms: _161  and  _164
REMARK   69  A    between atoms: _164  and  _165
REMARK   70  A    between atoms: _165  and  _166
REMARK   71  A    between atoms: _166  and  _167
REMARK   72  A    between atoms: _167  and  _168
REMARK   73  A    between atoms: _172  and  _174
REMARK   74  A    between atoms: _174  and  _175
REMARK   75  A    between atoms: _174  and  _177
REMARK   76  A    between atoms: _177  and  _178
REMARK   77  A    between atoms: _181  and  _183
REMARK   78  A    between atoms: _183  and  _184
REMARK   79  A    between atoms: _183  and  _186
REMARK   80  A    between atoms: _188  and  _190
REMARK   81  A    between atoms: _190  and  _191
REMARK   82  A    between atoms: _190  and  _193
REMARK   83  A    between atoms: _193  and  _194
REMARK   84  A    between atoms: _197  and  _199
REMARK   85  A    between atoms: _199  and  _200
REMARK   86  A    between atoms: _199  and  _202
REMARK   87  A    between atoms: _202  and  _203
REMARK   88  A    between atoms: _206  and  _208
REMARK   89  A    between atoms: _208  and  _209
REMARK   90  A    between atoms: _208  and  _211
REMARK   91  A    between atoms: _211  and  _212
REMARK   92  A    between atoms: _215  and  _217
REMARK   93  A    between atoms: _217  and  _218
REMARK   94  A    between atoms: _217  and  _220
REMARK   95  A    between atoms: _220  and  _221
REMARK   96  A    between atoms: _224  and  _226
REMARK   97  A    between atoms: _226  and  _227
REMARK   98  A    between atoms: _226  and  _229
REMARK   99  A    between atoms: _229  and  _230
REMARK  100  A    between atoms: _230  and  _231
REMARK  101  A    between atoms: _233  and  _235
REMARK  102  A    between atoms: _235  and  _236
REMARK  103  A    between atoms: _235  and  _238
REMARK  104  A    between atoms: _238  and  _239
REMARK  105  A    between atoms: _242  and  _244
REMARK  106  A    between atoms: _244  and  _245
REMARK  107  A    between atoms: _244  and  _247
REMARK  108  A    between atoms: _247  and  _248
REMARK  109  A    between atoms: _248  and  _249
REMARK  110  A    between atoms: _249  and  _250
REMARK  111  A    between atoms: _259  and  _261
REMARK  112  A    between atoms: _261  and  _262
REMARK  113  A    between atoms: _261  and  _264
REMARK  114  A    between atoms: _264  and  _265
REMARK  115  A    between atoms: _268  and  _270
REMARK  116  A    between atoms: _270  and  _271
REMARK  117  A    between atoms: _270  and  _273
REMARK  118  A    between atoms: _275  and  _277
REMARK  119  A    between atoms: _277  and  _278
REMARK  120  A    between atoms: _277  and  _280
REMARK  121  A    between atoms: _280  and  _281
REMARK  122  A    between atoms: _284  and  _286
REMARK  123  A    between atoms: _286  and  _287
REMARK  124  A    between atoms: _286  and  _289
REMARK  125  A    between atoms: _289  and  _290
REMARK  126  A    between atoms: _290  and  _291
REMARK  127  A    between atoms: _291  and  _292
REMARK  128  A    between atoms: _301  and  _303
REMARK  129  A    between atoms: _303  and  _304
REMARK  130  A    between atoms: _303  and  _306
REMARK  131  A    between atoms: _306  and  _307
REMARK  132  A    between atoms: _307  and  _308
REMARK  133  A    between atoms: _310  and  _312
REMARK  134  A    between atoms: _312  and  _313
REMARK  135  A    between atoms: _312  and  _315
REMARK  136  A    between atoms: _315  and  _316
REMARK  137  A    between atoms: _319  and  _321
REMARK  138  A    between atoms: _321  and  _322
REMARK  139  A    between atoms: _321  and  _324
REMARK  140  A    between atoms: _324  and  _325
REMARK  141  A    between atoms: _331  and  _333
REMARK  142  A    between atoms: _333  and  _334
REMARK  143  A    between atoms: _333  and  _336
REMARK  144  A    between atoms: _336  and  _337
REMARK  145  A    between atoms: _339  and  _341
REMARK  146  A    between atoms: _341  and  _342
REMARK  147  A    between atoms: _341  and  _344
REMARK  148  A    between atoms: _344  and  _345
REMARK  149  A    between atoms: _348  and  _350
REMARK  150  A    between atoms: _350  and  _351
REMARK  151  A    between atoms: _353  and  _355
REMARK  152  A    between atoms: _355  and  _356
REMARK  153  A    between atoms: _355  and  _358
REMARK  154  A    between atoms: _358  and  _359
REMARK  155  A    between atoms: _362  and  _364
REMARK  156  A    between atoms: _364  and  _365
REMARK  157  A    between atoms: _364  and  _367
REMARK  158  A    between atoms: _367  and  _368
REMARK  159  A    between atoms: _368  and  _369
REMARK  160  A    between atoms: _371  and  _373
REMARK  161  A    between atoms: _373  and  _374
REMARK  162  A    between atoms: _373  and  _376
REMARK  163  A    between atoms: _376  and  _377
REMARK  164  A    between atoms: _382  and  _384
REMARK  165  A    between atoms: _384  and  _385
REMARK  166  A    between atoms: _388  and  _390
REMARK  167  A    between atoms: _390  and  _391
REMARK  168  A    between atoms: _393  and  _395
REMARK  169  A    between atoms: _395  and  _396
REMARK  170  A    between atoms: _395  and  _398
REMARK  171  A    between atoms: _398  and  _399
REMARK  172  A    between atoms: _405  and  _407
REMARK  173  A    between atoms: _407  and  _408
REMARK  174  A    between atoms: _410  and  _412
REMARK  175  A    between atoms: _412  and  _413
REMARK  176  A    between atoms: _412  and  _415
REMARK  177  A    between atoms: _415  and  _416
REMARK  178  A    between atoms: _419  and  _421
REMARK  179  A    between atoms: _421  and  _422
REMARK  180  A    between atoms: _421  and  _424
REMARK  181  A    between atoms: _424  and  _425
REMARK  182  A    between atoms: _428  and  _430
REMARK  183  A    between atoms: _430  and  _431
REMARK  184  A    between atoms: _430  and  _433
REMARK  185  A    between atoms: _436  and  _438
REMARK  186  A    between atoms: _438  and  _439
REMARK  187  A    between atoms: _438  and  _441
REMARK  188  A    between atoms: _441  and  _442
REMARK  189  A    between atoms: _445  and  _447
REMARK  190  A    between atoms: _447  and  _448
REMARK  191  A    between atoms: _447  and  _450
REMARK  192  A    between atoms: _450  and  _451
REMARK  193  A    between atoms: _453  and  _455
REMARK  194  A    between atoms: _455  and  _456
REMARK  195  A    between atoms: _455  and  _458
REMARK  196  A    between atoms: _458  and  _459
REMARK  197  A    between atoms: _459  and  _460
REMARK  198  A    between atoms: _460  and  _461
REMARK  199  A    between atoms: _461  and  _462
REMARK  200  A    between atoms: _466  and  _468
REMARK  201  A    between atoms: _468  and  _469
REMARK  202  A    between atoms: _471  and  _473
REMARK  203  A    between atoms: _473  and  _474
REMARK  204  A    between atoms: _477  and  _479
REMARK  205  A    between atoms: _479  and  _480
REMARK  206  A    between atoms: _479  and  _482
REMARK  207  A    between atoms: _483  and  _484
REMARK  208  A    between atoms: _487  and  _489
REMARK  209  A    between atoms: _489  and  _490
REMARK  210  A    between atoms: _489  and  _492
REMARK  211  A    between atoms: _492  and  _493
REMARK  212  A    between atoms: _493  and  _494
REMARK  213  A    between atoms: _494  and  _495
REMARK  214  A    between atoms: _504  and  _506
REMARK  215  A    between atoms: _506  and  _507
REMARK  216  A    between atoms: _510  and  _512
REMARK  217  A    between atoms: _512  and  _513
REMARK  218  A    between atoms: _512  and  _515
REMARK  219  A    between atoms: _515  and  _516
REMARK  220  A    between atoms: _519  and  _521
REMARK  221  A    between atoms: _521  and  _522
REMARK  222  A    between atoms: _521  and  _524
REMARK  223  A    between atoms: _524  and  _525
REMARK  224  A    between atoms: _528  and  _530
REMARK  225  A    between atoms: _530  and  _531
REMARK  226  A    between atoms: _530  and  _533
REMARK  227  A    between atoms: _533  and  _534
REMARK  228  A    between atoms: _537  and  _539
REMARK  229  A    between atoms: _539  and  _540
REMARK  230  A    between atoms: _539  and  _542
REMARK  231  A    between atoms: _542  and  _543
REMARK  232  A    between atoms: _543  and  _544
REMARK  233  A    between atoms: _544  and  _545
REMARK  234  A    between atoms: _545  and  _546
REMARK  235  A    between atoms: _550  and  _552
REMARK  236  A    between atoms: _552  and  _553
REMARK  237  A    between atoms: _552  and  _555
REMARK  238  A    between atoms: _555  and  _556
REMARK  239  A    between atoms: _559  and  _561
REMARK  240  A    between atoms: _561  and  _562
REMARK  241  A    between atoms: _561  and  _564
REMARK  242  A    between atoms: _564  and  _565
REMARK  243  A    between atoms: _565  and  _566
REMARK  244  A    between atoms: _569  and  _570
REMARK  245  A    between atoms: _575  and  _577
REMARK  246  A    between atoms: _577  and  _578
REMARK  247  A    between atoms: _577  and  _580
REMARK  248  A    between atoms: _580  and  _581
REMARK  249  A    between atoms: _584  and  _586
REMARK  250  A    between atoms: _586  and  _587
REMARK  251  A    between atoms: _586  and  _589
REMARK  252  A    between atoms: _589  and  _590
REMARK  253  A    between atoms: _593  and  _595
REMARK  254  A    between atoms: _595  and  _596
REMARK  255  A    between atoms: _595  and  _598
REMARK  256  A    between atoms: _598  and  _599
REMARK  257  A    between atoms: _599  and  _600
REMARK  258  A    between atoms: _600  and  _601
REMARK  259  A    between atoms: _610  and  _612
REMARK  260  A    between atoms: _612  and  _613
REMARK  261  A    between atoms: _612  and  _615
REMARK  262  A    between atoms: _615  and  _616
REMARK  263  A    between atoms: _616  and  _617
REMARK  264  A    between atoms: _619  and  _621
REMARK  265  A    between atoms: _621  and  _622
REMARK  266  A    between atoms: _621  and  _624
REMARK  267  A    between atoms: _624  and  _625
REMARK                            x       y       z     vdW  Elec       q    Type
REMARK                         _______ _______ _______ _____ _____    ______ ____
ROOT
ATOM      1  O   HOH     1      33.722  23.630  89.057  0.00  0.00    +0.000 OA
ENDROOT
TORSDOF 0
REMARK  Name = ../refined-set-2016/1fd0/1fd0_pocket.pdb
REMARK  267 active torsions:
REMARK  status: ('A' for Active; 'I' for Inactive)
REMARK    1  A    between atoms: _1  and  _3
REMARK    2  A    between atoms: _3  and  _4
REMARK    3  A    between atoms: _3  and  _6
REMARK    4  A    between atoms: _6  and  _7
REMARK    5  A    between atoms: _10  and  _12
REMARK    6  A    between atoms: _12  and  _13
REMARK    7  A    between atoms: _12  and  _15
REMARK    8  A    between atoms: _15  and  _16
REMARK    9  A    between atoms: _23  and  _24
REMARK   10  A    between atoms: _29  and  _31
REMARK   11  A    between atoms: _31  and  _32
REMARK   12  A    between atoms: _31  and  _34
REMARK   13  A    between atoms: _34  and  _35
REMARK   14  A    between atoms: _38  and  _40
REMARK   15  A    between atoms: _40  and  _41
REMARK   16  A    between atoms: _40  and  _43
REMARK   17  A    between atoms: _43  and  _44
REMARK   18  A    between atoms: _47  and  _49
REMARK   19  A    between atoms: _49  and  _50
REMARK   20  A    between atoms: _49  and  _52
REMARK   21  A    between atoms: _52  and  _53
REMARK   22  A    between atoms: _63  and  _65
REMARK   23  A    between atoms: _65  and  _66
REMARK   24  A    between atoms: _65  and  _68
REMARK   25  A    between atoms: _68  and  _69
REMARK   26  A    between atoms: _69  and  _70
REMARK   27  A    between atoms: _70  and  _71
REMARK   28  A    between atoms: _71  and  _72
REMARK   29  A    between atoms: _76  and  _78
REMARK   30  A    between atoms: _78  and  _79
REMARK   31  A    between atoms: _78  and  _81
REMARK   32  A    between atoms: _81  and  _82
REMARK   33  A    between atoms: _88  and  _90
REMARK   34  A    between atoms: _90  and  _91
REMARK   35  A    between atoms: _90  and  _93
REMARK   36  A    between atoms: _93  and  _94
REMARK   37  A    between atoms: _96  and  _98
REMARK   38  A    between atoms: _98  and  _99
REMARK   39  A    between atoms: _98  and  _101
REMARK   40  A    between atoms: _101  and  _102
REMARK   41  A    between atoms: _102  and  _103
REMARK   42  A    between atoms: _106  and  _108
REMARK   43  A    between atoms: _108  and  _109
REMARK   44  A    between atoms: _108  and  _111
REMARK   45  A    between atoms: _111  and  _112
REMARK   46  A    between atoms: _115  and  _117
REMARK   47  A    between atoms: _117  and  _118
REMARK   48  A    between atoms: _121  and  _123
REMARK   49  A    between atoms: _123  and  _124
REMARK   50  A    between atoms: _123  and  _126
REMARK   51  A    between atoms: _126  and  _127
REMARK   52  A    between atoms: _130  and  _132
REMARK   53  A    between atoms: _132  and  _133
REMARK   54  A    between atoms: _132  and  _135
REMARK   55  A    between atoms: _135  and  _136
REMARK   56  A    between atoms: _136  and  _137
REMARK   57  A    between atoms: _137  and  _138
REMARK   58  A    between atoms: _138  and  _139
REMARK   59  A    between atoms: _143  and  _145
REMARK   60  A    between atoms: _145  and  _146
REMARK   61  A    between atoms: _145  and  _148
REMARK   62  A    between atoms: _150  and  _152
REMARK   63  A    between atoms: _152  and  _153
REMARK   64  A    between atoms: _152  and  _155
REMARK   65  A    between atoms: _155  and  _156
REMARK   66  A    between atoms: _159  and  _161
REMARK   67  A    between atoms: _161  and  _162
REMARK   68  A    between atoms: _161  and  _164
REMARK   69  A    between atoms: _164  and  _165
REMARK   70  A    between atoms: _165  and  _166
REMARK   71  A    between atoms: _166  and  _167
REMARK   72  A    between atoms: _167  and  _168
REMARK   73  A    between atoms: _172  and  _174
REMARK   74  A    between atoms: _174  and  _175
REMARK   75  A    between atoms: _174  and  _177
REMARK   76  A    between atoms: _177  and  _178
REMARK   77  A    between atoms: _181  and  _183
REMARK   78  A    between atoms: _183  and  _184
REMARK   79  A    between atoms: _183  and  _186
REMARK   80  A    between atoms: _188  and  _190
REMARK   81  A    between atoms: _190  and  _191
REMARK   82  A    between atoms: _190  and  _193
REMARK   83  A    between atoms: _193  and  _194
REMARK   84  A    between atoms: _197  and  _199
REMARK   85  A    between atoms: _199  and  _200
REMARK   86  A    between atoms: _199  and  _202
REMARK   87  A    between atoms: _202  and  _203
REMARK   88  A    between atoms: _206  and  _208
REMARK   89  A    between atoms: _208  and  _209
REMARK   90  A    between atoms: _208  and  _211
REMARK   91  A    between atoms: _211  and  _212
REMARK   92  A    between atoms: _215  and  _217
REMARK   93  A    between atoms: _217  and  _218
REMARK   94  A    between atoms: _217  and  _220
REMARK   95  A    between atoms: _220  and  _221
REMARK   96  A    between atoms: _224  and  _226
REMARK   97  A    between atoms: _226  and  _227
REMARK   98  A    between atoms: _226  and  _229
REMARK   99  A    between atoms: _229  and  _230
REMARK  100  A    between atoms: _230  and  _231
REMARK  101  A    between atoms: _233  and  _235
REMARK  102  A    between atoms: _235  and  _236
REMARK  103  A    between atoms: _235  and  _238
REMARK  104  A    between atoms: _238  and  _239
REMARK  105  A    between atoms: _242  and  _244
REMARK  106  A    between atoms: _244  and  _245
REMARK  107  A    between atoms: _244  and  _247
REMARK  108  A    between atoms: _247  and  _248
REMARK  109  A    between atoms: _248  and  _249
REMARK  110  A    between atoms: _249  and  _250
REMARK  111  A    between atoms: _259  and  _261
REMARK  112  A    between atoms: _261  and  _262
REMARK  113  A    between atoms: _261  and  _264
REMARK  114  A    between atoms: _264  and  _265
REMARK  115  A    between atoms: _268  and  _270
REMARK  116  A    between atoms: _270  and  _271
REMARK  117  A    between atoms: _270  and  _273
REMARK  118  A    between atoms: _275  and  _277
REMARK  119  A    between atoms: _277  and  _278
REMARK  120  A    between atoms: _277  and  _280
REMARK  121  A    between atoms: _280  and  _281
REMARK  122  A    between atoms: _284  and  _286
REMARK  123  A    between atoms: _286  and  _287
REMARK  124  A    between atoms: _286  and  _289
REMARK  125  A    between atoms: _289  and  _290
REMARK  126  A    between atoms: _290  and  _291
REMARK  127  A    between atoms: _291  and  _292
REMARK  128  A    between atoms: _301  and  _303
REMARK  129  A    between atoms: _303  and  _304
REMARK  130  A    between atoms: _303  and  _306
REMARK  131  A    between atoms: _306  and  _307
REMARK  132  A    between atoms: _307  and  _308
REMARK  133  A    between atoms: _310  and  _312
REMARK  134  A    between atoms: _312  and  _313
REMARK  135  A    between atoms: _312  and  _315
REMARK  136  A    between atoms: _315  and  _316
REMARK  137  A    between atoms: _319  and  _321
REMARK  138  A    between atoms: _321  and  _322
REMARK  139  A    between atoms: _321  and  _324
REMARK  140  A    between atoms: _324  and  _325
REMARK  141  A    between atoms: _331  and  _333
REMARK  142  A    between atoms: _333  and  _334
REMARK  143  A    between atoms: _333  and  _336
REMARK  144  A    between atoms: _336  and  _337
REMARK  145  A    between atoms: _339  and  _341
REMARK  146  A    between atoms: _341  and  _342
REMARK  147  A    between atoms: _341  and  _344
REMARK  148  A    between atoms: _344  and  _345
REMARK  149  A    between atoms: _348  and  _350
REMARK  150  A    between atoms: _350  and  _351
REMARK  151  A    between atoms: _353  and  _355
REMARK  152  A    between atoms: _355  and  _356
REMARK  153  A    between atoms: _355  and  _358
REMARK  154  A    between atoms: _358  and  _359
REMARK  155  A    between atoms: _362  and  _364
REMARK  156  A    between atoms: _364  and  _365
REMARK  157  A    between atoms: _364  and  _367
REMARK  158  A    between atoms: _367  and  _368
REMARK  159  A    between atoms: _368  and  _369
REMARK  160  A    between atoms: _371  and  _373
REMARK  161  A    between atoms: _373  and  _374
REMARK  162  A    between atoms: _373  and  _376
REMARK  163  A    between atoms: _376  and  _377
REMARK  164  A    between atoms: _382  and  _384
REMARK  165  A    between atoms: _384  and  _385
REMARK  166  A    between atoms: _388  and  _390
REMARK  167  A    between atoms: _390  and  _391
REMARK  168  A    between atoms: _393  and  _395
REMARK  169  A    between atoms: _395  and  _396
REMARK  170  A    between atoms: _395  and  _398
REMARK  171  A    between atoms: _398  and  _399
REMARK  172  A    between atoms: _405  and  _407
REMARK  173  A    between atoms: _407  and  _408
REMARK  174  A    between atoms: _410  and  _412
REMARK  175  A    between atoms: _412  and  _413
REMARK  176  A    between atoms: _412  and  _415
REMARK  177  A    between atoms: _415  and  _416
REMARK  178  A    between atoms: _419  and  _421
REMARK  179  A    between atoms: _421  and  _422
REMARK  180  A    between atoms: _421  and  _424
REMARK  181  A    between atoms: _424  and  _425
REMARK  182  A    between atoms: _428  and  _430
REMARK  183  A    between atoms: _430  and  _431
REMARK  184  A    between atoms: _430  and  _433
REMARK  185  A    between atoms: _436  and  _438
REMARK  186  A    between atoms: _438  and  _439
REMARK  187  A    between atoms: _438  and  _441
REMARK  188  A    between atoms: _441  and  _442
REMARK  189  A    between atoms: _445  and  _447
REMARK  190  A    between atoms: _447  and  _448
REMARK  191  A    between atoms: _447  and  _450
REMARK  192  A    between atoms: _450  and  _451
REMARK  193  A    between atoms: _453  and  _455
REMARK  194  A    between atoms: _455  and  _456
REMARK  195  A    between atoms: _455  and  _458
REMARK  196  A    between atoms: _458  and  _459
REMARK  197  A    between atoms: _459  and  _460
REMARK  198  A    between atoms: _460  and  _461
REMARK  199  A    between atoms: _461  and  _462
REMARK  200  A    between atoms: _466  and  _468
REMARK  201  A    between atoms: _468  and  _469
REMARK  202  A    between atoms: _471  and  _473
REMARK  203  A    between atoms: _473  and  _474
REMARK  204  A    between atoms: _477  and  _479
REMARK  205  A    between atoms: _479  and  _480
REMARK  206  A    between atoms: _479  and  _482
REMARK  207  A    between atoms: _483  and  _484
REMARK  208  A    between atoms: _487  and  _489
REMARK  209  A    between atoms: _489  and  _490
REMARK  210  A    between atoms: _489  and  _492
REMARK  211  A    between atoms: _492  and  _493
REMARK  212  A    between atoms: _493  and  _494
REMARK  213  A    between atoms: _494  and  _495
REMARK  214  A    between atoms: _504  and  _506
REMARK  215  A    between atoms: _506  and  _507
REMARK  216  A    between atoms: _510  and  _512
REMARK  217  A    between atoms: _512  and  _513
REMARK  218  A    between atoms: _512  and  _515
REMARK  219  A    between atoms: _515  and  _516
REMARK  220  A    between atoms: _519  and  _521
REMARK  221  A    between atoms: _521  and  _522
REMARK  222  A    between atoms: _521  and  _524
REMARK  223  A    between atoms: _524  and  _525
REMARK  224  A    between atoms: _528  and  _530
REMARK  225  A    between atoms: _530  and  _531
REMARK  226  A    between atoms: _530  and  _533
REMARK  227  A    between atoms: _533  and  _534
REMARK  228  A    between atoms: _537  and  _539
REMARK  229  A    between atoms: _539  and  _540
REMARK  230  A    between atoms: _539  and  _542
REMARK  231  A    between atoms: _542  and  _543
REMARK  232  A    between atoms: _543  and  _544
REMARK  233  A    between atoms: _544  and  _545
REMARK  234  A    between atoms: _545  and  _546
REMARK  235  A    between atoms: _550  and  _552
REMARK  236  A    between atoms: _552  and  _553
REMARK  237  A    between atoms: _552  and  _555
REMARK  238  A    between atoms: _555  and  _556
REMARK  239  A    between atoms: _559  and  _561
REMARK  240  A    between atoms: _561  and  _562
REMARK  241  A    between atoms: _561  and  _564
REMARK  242  A    between atoms: _564  and  _565
REMARK  243  A    between atoms: _565  and  _566
REMARK  244  A    between atoms: _569  and  _570
REMARK  245  A    between atoms: _575  and  _577
REMARK  246  A    between atoms: _577  and  _578
REMARK  247  A    between atoms: _577  and  _580
REMARK  248  A    between atoms: _580  and  _581
REMARK  249  A    between atoms: _584  and  _586
REMARK  250  A    between atoms: _586  and  _587
REMARK  251  A    between atoms: _586  and  _589
REMARK  252  A    between atoms: _589  and  _590
REMARK  253  A    between atoms: _593  and  _595
REMARK  254  A    between atoms: _595  and  _596
REMARK  255  A    between atoms: _595  and  _598
REMARK  256  A    between atoms: _598  and  _599
REMARK  257  A    between atoms: _599  and  _600
REMARK  258  A    between atoms: _600  and  _601
REMARK  259  A    between atoms: _610  and  _612
REMARK  260  A    between atoms: _612  and  _613
REMARK  261  A    between atoms: _612  and  _615
REMARK  262  A    between atoms: _615  and  _616
REMARK  263  A    between atoms: _616  and  _617
REMARK  264  A    between atoms: _619  and  _621
REMARK  265  A    between atoms: _621  and  _622
REMARK  266  A    between atoms: _621  and  _624
REMARK  267  A    between atoms: _624  and  _625
REMARK                            x       y       z     vdW  Elec       q    Type
REMARK                         _______ _______ _______ _____ _____    ______ ____
ROOT
ATOM      1  O   HOH     1      34.312  23.696  91.949  0.00  0.00    +0.000 OA
ENDROOT
TORSDOF 0
REMARK  Name = ../refined-set-2016/1fd0/1fd0_pocket.pdb
REMARK  267 active torsions:
REMARK  status: ('A' for Active; 'I' for Inactive)
REMARK    1  A    between atoms: _1  and  _3
REMARK    2  A    between atoms: _3  and  _4
REMARK    3  A    between atoms: _3  and  _6
REMARK    4  A    between atoms: _6  and  _7
REMARK    5  A    between atoms: _10  and  _12
REMARK    6  A    between atoms: _12  and  _13
REMARK    7  A    between atoms: _12  and  _15
REMARK    8  A    between atoms: _15  and  _16
REMARK    9  A    between atoms: _23  and  _24
REMARK   10  A    between atoms: _29  and  _31
REMARK   11  A    between atoms: _31  and  _32
REMARK   12  A    between atoms: _31  and  _34
REMARK   13  A    between atoms: _34  and  _35
REMARK   14  A    between atoms: _38  and  _40
REMARK   15  A    between atoms: _40  and  _41
REMARK   16  A    between atoms: _40  and  _43
REMARK   17  A    between atoms: _43  and  _44
REMARK   18  A    between atoms: _47  and  _49
REMARK   19  A    between atoms: _49  and  _50
REMARK   20  A    between atoms: _49  and  _52
REMARK   21  A    between atoms: _52  and  _53
REMARK   22  A    between atoms: _63  and  _65
REMARK   23  A    between atoms: _65  and  _66
REMARK   24  A    between atoms: _65  and  _68
REMARK   25  A    between atoms: _68  and  _69
REMARK   26  A    between atoms: _69  and  _70
REMARK   27  A    between atoms: _70  and  _71
REMARK   28  A    between atoms: _71  and  _72
REMARK   29  A    between atoms: _76  and  _78
REMARK   30  A    between atoms: _78  and  _79
REMARK   31  A    between atoms: _78  and  _81
REMARK   32  A    between atoms: _81  and  _82
REMARK   33  A    between atoms: _88  and  _90
REMARK   34  A    between atoms: _90  and  _91
REMARK   35  A    between atoms: _90  and  _93
REMARK   36  A    between atoms: _93  and  _94
REMARK   37  A    between atoms: _96  and  _98
REMARK   38  A    between atoms: _98  and  _99
REMARK   39  A    between atoms: _98  and  _101
REMARK   40  A    between atoms: _101  and  _102
REMARK   41  A    between atoms: _102  and  _103
REMARK   42  A    between atoms: _106  and  _108
REMARK   43  A    between atoms: _108  and  _109
REMARK   44  A    between atoms: _108  and  _111
REMARK   45  A    between atoms: _111  and  _112
REMARK   46  A    between atoms: _115  and  _117
REMARK   47  A    between atoms: _117  and  _118
REMARK   48  A    between atoms: _121  and  _123
REMARK   49  A    between atoms: _123  and  _124
REMARK   50  A    between atoms: _123  and  _126
REMARK   51  A    between atoms: _126  and  _127
REMARK   52  A    between atoms: _130  and  _132
REMARK   53  A    between atoms: _132  and  _133
REMARK   54  A    between atoms: _132  and  _135
REMARK   55  A    between atoms: _135  and  _136
REMARK   56  A    between atoms: _136  and  _137
REMARK   57  A    between atoms: _137  and  _138
REMARK   58  A    between atoms: _138  and  _139
REMARK   59  A    between atoms: _143  and  _145
REMARK   60  A    between atoms: _145  and  _146
REMARK   61  A    between atoms: _145  and  _148
REMARK   62  A    between atoms: _150  and  _152
REMARK   63  A    between atoms: _152  and  _153
REMARK   64  A    between atoms: _152  and  _155
REMARK   65  A    between atoms: _155  and  _156
REMARK   66  A    between atoms: _159  and  _161
REMARK   67  A    between atoms: _161  and  _162
REMARK   68  A    between atoms: _161  and  _164
REMARK   69  A    between atoms: _164  and  _165
REMARK   70  A    between atoms: _165  and  _166
REMARK   71  A    between atoms: _166  and  _167
REMARK   72  A    between atoms: _167  and  _168
REMARK   73  A    between atoms: _172  and  _174
REMARK   74  A    between atoms: _174  and  _175
REMARK   75  A    between atoms: _174  and  _177
REMARK   76  A    between atoms: _177  and  _178
REMARK   77  A    between atoms: _181  and  _183
REMARK   78  A    between atoms: _183  and  _184
REMARK   79  A    between atoms: _183  and  _186
REMARK   80  A    between atoms: _188  and  _190
REMARK   81  A    between atoms: _190  and  _191
REMARK   82  A    between atoms: _190  and  _193
REMARK   83  A    between atoms: _193  and  _194
REMARK   84  A    between atoms: _197  and  _199
REMARK   85  A    between atoms: _199  and  _200
REMARK   86  A    between atoms: _199  and  _202
REMARK   87  A    between atoms: _202  and  _203
REMARK   88  A    between atoms: _206  and  _208
REMARK   89  A    between atoms: _208  and  _209
REMARK   90  A    between atoms: _208  and  _211
REMARK   91  A    between atoms: _211  and  _212
REMARK   92  A    between atoms: _215  and  _217
REMARK   93  A    between atoms: _217  and  _218
REMARK   94  A    between atoms: _217  and  _220
REMARK   95  A    between atoms: _220  and  _221
REMARK   96  A    between atoms: _224  and  _226
REMARK   97  A    between atoms: _226  and  _227
REMARK   98  A    between atoms: _226  and  _229
REMARK   99  A    between atoms: _229  and  _230
REMARK  100  A    between atoms: _230  and  _231
REMARK  101  A    between atoms: _233  and  _235
REMARK  102  A    between atoms: _235  and  _236
REMARK  103  A    between atoms: _235  and  _238
REMARK  104  A    between atoms: _238  and  _239
REMARK  105  A    between atoms: _242  and  _244
REMARK  106  A    between atoms: _244  and  _245
REMARK  107  A    between atoms: _244  and  _247
REMARK  108  A    between atoms: _247  and  _248
REMARK  109  A    between atoms: _248  and  _249
REMARK  110  A    between atoms: _249  and  _250
REMARK  111  A    between atoms: _259  and  _261
REMARK  112  A    between atoms: _261  and  _262
REMARK  113  A    between atoms: _261  and  _264
REMARK  114  A    between atoms: _264  and  _265
REMARK  115  A    between atoms: _268  and  _270
REMARK  116  A    between atoms: _270  and  _271
REMARK  117  A    between atoms: _270  and  _273
REMARK  118  A    between atoms: _275  and  _277
REMARK  119  A    between atoms: _277  and  _278
REMARK  120  A    between atoms: _277  and  _280
REMARK  121  A    between atoms: _280  and  _281
REMARK  122  A    between atoms: _284  and  _286
REMARK  123  A    between atoms: _286  and  _287
REMARK  124  A    between atoms: _286  and  _289
REMARK  125  A    between atoms: _289  and  _290
REMARK  126  A    between atoms: _290  and  _291
REMARK  127  A    between atoms: _291  and  _292
REMARK  128  A    between atoms: _301  and  _303
REMARK  129  A    between atoms: _303  and  _304
REMARK  130  A    between atoms: _303  and  _306
REMARK  131  A    between atoms: _306  and  _307
REMARK  132  A    between atoms: _307  and  _308
REMARK  133  A    between atoms: _310  and  _312
REMARK  134  A    between atoms: _312  and  _313
REMARK  135  A    between atoms: _312  and  _315
REMARK  136  A    between atoms: _315  and  _316
REMARK  137  A    between atoms: _319  and  _321
REMARK  138  A    between atoms: _321  and  _322
REMARK  139  A    between atoms: _321  and  _324
REMARK  140  A    between atoms: _324  and  _325
REMARK  141  A    between atoms: _331  and  _333
REMARK  142  A    between atoms: _333  and  _334
REMARK  143  A    between atoms: _333  and  _336
REMARK  144  A    between atoms: _336  and  _337
REMARK  145  A    between atoms: _339  and  _341
REMARK  146  A    between atoms: _341  and  _342
REMARK  147  A    between atoms: _341  and  _344
REMARK  148  A    between atoms: _344  and  _345
REMARK  149  A    between atoms: _348  and  _350
REMARK  150  A    between atoms: _350  and  _351
REMARK  151  A    between atoms: _353  and  _355
REMARK  152  A    between atoms: _355  and  _356
REMARK  153  A    between atoms: _355  and  _358
REMARK  154  A    between atoms: _358  and  _359
REMARK  155  A    between atoms: _362  and  _364
REMARK  156  A    between atoms: _364  and  _365
REMARK  157  A    between atoms: _364  and  _367
REMARK  158  A    between atoms: _367  and  _368
REMARK  159  A    between atoms: _368  and  _369
REMARK  160  A    between atoms: _371  and  _373
REMARK  161  A    between atoms: _373  and  _374
REMARK  162  A    between atoms: _373  and  _376
REMARK  163  A    between atoms: _376  and  _377
REMARK  164  A    between atoms: _382  and  _384
REMARK  165  A    between atoms: _384  and  _385
REMARK  166  A    between atoms: _388  and  _390
REMARK  167  A    between atoms: _390  and  _391
REMARK  168  A    between atoms: _393  and  _395
REMARK  169  A    between atoms: _395  and  _396
REMARK  170  A    between atoms: _395  and  _398
REMARK  171  A    between atoms: _398  and  _399
REMARK  172  A    between atoms: _405  and  _407
REMARK  173  A    between atoms: _407  and  _408
REMARK  174  A    between atoms: _410  and  _412
REMARK  175  A    between atoms: _412  and  _413
REMARK  176  A    between atoms: _412  and  _415
REMARK  177  A    between atoms: _415  and  _416
REMARK  178  A    between atoms: _419  and  _421
REMARK  179  A    between atoms: _421  and  _422
REMARK  180  A    between atoms: _421  and  _424
REMARK  181  A    between atoms: _424  and  _425
REMARK  182  A    between atoms: _428  and  _430
REMARK  183  A    between atoms: _430  and  _431
REMARK  184  A    between atoms: _430  and  _433
REMARK  185  A    between atoms: _436  and  _438
REMARK  186  A    between atoms: _438  and  _439
REMARK  187  A    between atoms: _438  and  _441
REMARK  188  A    between atoms: _441  and  _442
REMARK  189  A    between atoms: _445  and  _447
REMARK  190  A    between atoms: _447  and  _448
REMARK  191  A    between atoms: _447  and  _450
REMARK  192  A    between atoms: _450  and  _451
REMARK  193  A    between atoms: _453  and  _455
REMARK  194  A    between atoms: _455  and  _456
REMARK  195  A    between atoms: _455  and  _458
REMARK  196  A    between atoms: _458  and  _459
REMARK  197  A    between atoms: _459  and  _460
REMARK  198  A    between atoms: _460  and  _461
REMARK  199  A    between atoms: _461  and  _462
REMARK  200  A    between atoms: _466  and  _468
REMARK  201  A    between atoms: _468  and  _469
REMARK  202  A    between atoms: _471  and  _473
REMARK  203  A    between atoms: _473  and  _474
REMARK  204  A    between atoms: _477  and  _479
REMARK  205  A    between atoms: _479  and  _480
REMARK  206  A    between atoms: _479  and  _482
REMARK  207  A    between atoms: _483  and  _484
REMARK  208  A    between atoms: _487  and  _489
REMARK  209  A    between atoms: _489  and  _490
REMARK  210  A    between atoms: _489  and  _492
REMARK  211  A    between atoms: _492  and  _493
REMARK  212  A    between atoms: _493  and  _494
REMARK  213  A    between atoms: _494  and  _495
REMARK  214  A    between atoms: _504  and  _506
REMARK  215  A    between atoms: _506  and  _507
REMARK  216  A    between atoms: _510  and  _512
REMARK  217  A    between atoms: _512  and  _513
REMARK  218  A    between atoms: _512  and  _515
REMARK  219  A    between atoms: _515  and  _516
REMARK  220  A    between atoms: _519  and  _521
REMARK  221  A    between atoms: _521  and  _522
REMARK  222  A    between atoms: _521  and  _524
REMARK  223  A    between atoms: _524  and  _525
REMARK  224  A    between atoms: _528  and  _530
REMARK  225  A    between atoms: _530  and  _531
REMARK  226  A    between atoms: _530  and  _533
REMARK  227  A    between atoms: _533  and  _534
REMARK  228  A    between atoms: _537  and  _539
REMARK  229  A    between atoms: _539  and  _540
REMARK  230  A    between atoms: _539  and  _542
REMARK  231  A    between atoms: _542  and  _543
REMARK  232  A    between atoms: _543  and  _544
REMARK  233  A    between atoms: _544  and  _545
REMARK  234  A    between atoms: _545  and  _546
REMARK  235  A    between atoms: _550  and  _552
REMARK  236  A    between atoms: _552  and  _553
REMARK  237  A    between atoms: _552  and  _555
REMARK  238  A    between atoms: _555  and  _556
REMARK  239  A    between atoms: _559  and  _561
REMARK  240  A    between atoms: _561  and  _562
REMARK  241  A    between atoms: _561  and  _564
REMARK  242  A    between atoms: _564  and  _565
REMARK  243  A    between atoms: _565  and  _566
REMARK  244  A    between atoms: _569  and  _570
REMARK  245  A    between atoms: _575  and  _577
REMARK  246  A    between atoms: _577  and  _578
REMARK  247  A    between atoms: _577  and  _580
REMARK  248  A    between atoms: _580  and  _581
REMARK  249  A    between atoms: _584  and  _586
REMARK  250  A    between atoms: _586  and  _587
REMARK  251  A    between atoms: _586  and  _589
REMARK  252  A    between atoms: _589  and  _590
REMARK  253  A    between atoms: _593  and  _595
REMARK  254  A    between atoms: _595  and  _596
REMARK  255  A    between atoms: _595  and  _598
REMARK  256  A    between atoms: _598  and  _599
REMARK  257  A    between atoms: _599  and  _600
REMARK  258  A    between atoms: _600  and  _601
REMARK  259  A    between atoms: _610  and  _612
REMARK  260  A    between atoms: _612  and  _613
REMARK  261  A    between atoms: _612  and  _615
REMARK  262  A    between atoms: _615  and  _616
REMARK  263  A    between atoms: _616  and  _617
REMARK  264  A    between atoms: _619  and  _621
REMARK  265  A    between atoms: _621  and  _622
REMARK  266  A    between atoms: _621  and  _624
REMARK  267  A    between atoms: _624  and  _625
REMARK                            x       y       z     vdW  Elec       q    Type
REMARK                         _______ _______ _______ _____ _____    ______ ____
ROOT
ATOM      1  O   HOH     1      33.253  25.962  87.944  0.00  0.00    +0.000 OA
ENDROOT
TORSDOF 0
REMARK  Name = ../refined-set-2016/1fd0/1fd0_pocket.pdb
REMARK  267 active torsions:
REMARK  status: ('A' for Active; 'I' for Inactive)
REMARK    1  A    between atoms: _1  and  _3
REMARK    2  A    between atoms: _3  and  _4
REMARK    3  A    between atoms: _3  and  _6
REMARK    4  A    between atoms: _6  and  _7
REMARK    5  A    between atoms: _10  and  _12
REMARK    6  A    between atoms: _12  and  _13
REMARK    7  A    between atoms: _12  and  _15
REMARK    8  A    between atoms: _15  and  _16
REMARK    9  A    between atoms: _23  and  _24
REMARK   10  A    between atoms: _29  and  _31
REMARK   11  A    between atoms: _31  and  _32
REMARK   12  A    between atoms: _31  and  _34
REMARK   13  A    between atoms: _34  and  _35
REMARK   14  A    between atoms: _38  and  _40
REMARK   15  A    between atoms: _40  and  _41
REMARK   16  A    between atoms: _40  and  _43
REMARK   17  A    between atoms: _43  and  _44
REMARK   18  A    between atoms: _47  and  _49
REMARK   19  A    between atoms: _49  and  _50
REMARK   20  A    between atoms: _49  and  _52
REMARK   21  A    between atoms: _52  and  _53
REMARK   22  A    between atoms: _63  and  _65
REMARK   23  A    between atoms: _65  and  _66
REMARK   24  A    between atoms: _65  and  _68
REMARK   25  A    between atoms: _68  and  _69
REMARK   26  A    between atoms: _69  and  _70
REMARK   27  A    between atoms: _70  and  _71
REMARK   28  A    between atoms: _71  and  _72
REMARK   29  A    between atoms: _76  and  _78
REMARK   30  A    between atoms: _78  and  _79
REMARK   31  A    between atoms: _78  and  _81
REMARK   32  A    between atoms: _81  and  _82
REMARK   33  A    between atoms: _88  and  _90
REMARK   34  A    between atoms: _90  and  _91
REMARK   35  A    between atoms: _90  and  _93
REMARK   36  A    between atoms: _93  and  _94
REMARK   37  A    between atoms: _96  and  _98
REMARK   38  A    between atoms: _98  and  _99
REMARK   39  A    between atoms: _98  and  _101
REMARK   40  A    between atoms: _101  and  _102
REMARK   41  A    between atoms: _102  and  _103
REMARK   42  A    between atoms: _106  and  _108
REMARK   43  A    between atoms: _108  and  _109
REMARK   44  A    between atoms: _108  and  _111
REMARK   45  A    between atoms: _111  and  _112
REMARK   46  A    between atoms: _115  and  _117
REMARK   47  A    between atoms: _117  and  _118
REMARK   48  A    between atoms: _121  and  _123
REMARK   49  A    between atoms: _123  and  _124
REMARK   50  A    between atoms: _123  and  _126
REMARK   51  A    between atoms: _126  and  _127
REMARK   52  A    between atoms: _130  and  _132
REMARK   53  A    between atoms: _132  and  _133
REMARK   54  A    between atoms: _132  and  _135
REMARK   55  A    between atoms: _135  and  _136
REMARK   56  A    between atoms: _136  and  _137
REMARK   57  A    between atoms: _137  and  _138
REMARK   58  A    between atoms: _138  and  _139
REMARK   59  A    between atoms: _143  and  _145
REMARK   60  A    between atoms: _145  and  _146
REMARK   61  A    between atoms: _145  and  _148
REMARK   62  A    between atoms: _150  and  _152
REMARK   63  A    between atoms: _152  and  _153
REMARK   64  A    between atoms: _152  and  _155
REMARK   65  A    between atoms: _155  and  _156
REMARK   66  A    between atoms: _159  and  _161
REMARK   67  A    between atoms: _161  and  _162
REMARK   68  A    between atoms: _161  and  _164
REMARK   69  A    between atoms: _164  and  _165
REMARK   70  A    between atoms: _165  and  _166
REMARK   71  A    between atoms: _166  and  _167
REMARK   72  A    between atoms: _167  and  _168
REMARK   73  A    between atoms: _172  and  _174
REMARK   74  A    between atoms: _174  and  _175
REMARK   75  A    between atoms: _174  and  _177
REMARK   76  A    between atoms: _177  and  _178
REMARK   77  A    between atoms: _181  and  _183
REMARK   78  A    between atoms: _183  and  _184
REMARK   79  A    between atoms: _183  and  _186
REMARK   80  A    between atoms: _188  and  _190
REMARK   81  A    between atoms: _190  and  _191
REMARK   82  A    between atoms: _190  and  _193
REMARK   83  A    between atoms: _193  and  _194
REMARK   84  A    between atoms: _197  and  _199
REMARK   85  A    between atoms: _199  and  _200
REMARK   86  A    between atoms: _199  and  _202
REMARK   87  A    between atoms: _202  and  _203
REMARK   88  A    between atoms: _206  and  _208
REMARK   89  A    between atoms: _208  and  _209
REMARK   90  A    between atoms: _208  and  _211
REMARK   91  A    between atoms: _211  and  _212
REMARK   92  A    between atoms: _215  and  _217
REMARK   93  A    between atoms: _217  and  _218
REMARK   94  A    between atoms: _217  and  _220
REMARK   95  A    between atoms: _220  and  _221
REMARK   96  A    between atoms: _224  and  _226
REMARK   97  A    between atoms: _226  and  _227
REMARK   98  A    between atoms: _226  and  _229
REMARK   99  A    between atoms: _229  and  _230
REMARK  100  A    between atoms: _230  and  _231
REMARK  101  A    between atoms: _233  and  _235
REMARK  102  A    between atoms: _235  and  _236
REMARK  103  A    between atoms: _235  and  _238
REMARK  104  A    between atoms: _238  and  _239
REMARK  105  A    between atoms: _242  and  _244
REMARK  106  A    between atoms: _244  and  _245
REMARK  107  A    between atoms: _244  and  _247
REMARK  108  A    between atoms: _247  and  _248
REMARK  109  A    between atoms: _248  and  _249
REMARK  110  A    between atoms: _249  and  _250
REMARK  111  A    between atoms: _259  and  _261
REMARK  112  A    between atoms: _261  and  _262
REMARK  113  A    between atoms: _261  and  _264
REMARK  114  A    between atoms: _264  and  _265
REMARK  115  A    between atoms: _268  and  _270
REMARK  116  A    between atoms: _270  and  _271
REMARK  117  A    between atoms: _270  and  _273
REMARK  118  A    between atoms: _275  and  _277
REMARK  119  A    between atoms: _277  and  _278
REMARK  120  A    between atoms: _277  and  _280
REMARK  121  A    between atoms: _280  and  _281
REMARK  122  A    between atoms: _284  and  _286
REMARK  123  A    between atoms: _286  and  _287
REMARK  124  A    between atoms: _286  and  _289
REMARK  125  A    between atoms: _289  and  _290
REMARK  126  A    between atoms: _290  and  _291
REMARK  127  A    between atoms: _291  and  _292
REMARK  128  A    between atoms: _301  and  _303
REMARK  129  A    between atoms: _303  and  _304
REMARK  130  A    between atoms: _303  and  _306
REMARK  131  A    between atoms: _306  and  _307
REMARK  132  A    between atoms: _307  and  _308
REMARK  133  A    between atoms: _310  and  _312
REMARK  134  A    between atoms: _312  and  _313
REMARK  135  A    between atoms: _312  and  _315
REMARK  136  A    between atoms: _315  and  _316
REMARK  137  A    between atoms: _319  and  _321
REMARK  138  A    between atoms: _321  and  _322
REMARK  139  A    between atoms: _321  and  _324
REMARK  140  A    between atoms: _324  and  _325
REMARK  141  A    between atoms: _331  and  _333
REMARK  142  A    between atoms: _333  and  _334
REMARK  143  A    between atoms: _333  and  _336
REMARK  144  A    between atoms: _336  and  _337
REMARK  145  A    between atoms: _339  and  _341
REMARK  146  A    between atoms: _341  and  _342
REMARK  147  A    between atoms: _341  and  _344
REMARK  148  A    between atoms: _344  and  _345
REMARK  149  A    between atoms: _348  and  _350
REMARK  150  A    between atoms: _350  and  _351
REMARK  151  A    between atoms: _353  and  _355
REMARK  152  A    between atoms: _355  and  _356
REMARK  153  A    between atoms: _355  and  _358
REMARK  154  A    between atoms: _358  and  _359
REMARK  155  A    between atoms: _362  and  _364
REMARK  156  A    between atoms: _364  and  _365
REMARK  157  A    between atoms: _364  and  _367
REMARK  158  A    between atoms: _367  and  _368
REMARK  159  A    between atoms: _368  and  _369
REMARK  160  A    between atoms: _371  and  _373
REMARK  161  A    between atoms: _373  and  _374
REMARK  162  A    between atoms: _373  and  _376
REMARK  163  A    between atoms: _376  and  _377
REMARK  164  A    between atoms: _382  and  _384
REMARK  165  A    between atoms: _384  and  _385
REMARK  166  A    between atoms: _388  and  _390
REMARK  167  A    between atoms: _390  and  _391
REMARK  168  A    between atoms: _393  and  _395
REMARK  169  A    between atoms: _395  and  _396
REMARK  170  A    between atoms: _395  and  _398
REMARK  171  A    between atoms: _398  and  _399
REMARK  172  A    between atoms: _405  and  _407
REMARK  173  A    between atoms: _407  and  _408
REMARK  174  A    between atoms: _410  and  _412
REMARK  175  A    between atoms: _412  and  _413
REMARK  176  A    between atoms: _412  and  _415
REMARK  177  A    between atoms: _415  and  _416
REMARK  178  A    between atoms: _419  and  _421
REMARK  179  A    between atoms: _421  and  _422
REMARK  180  A    between atoms: _421  and  _424
REMARK  181  A    between atoms: _424  and  _425
REMARK  182  A    between atoms: _428  and  _430
REMARK  183  A    between atoms: _430  and  _431
REMARK  184  A    between atoms: _430  and  _433
REMARK  185  A    between atoms: _436  and  _438
REMARK  186  A    between atoms: _438  and  _439
REMARK  187  A    between atoms: _438  and  _441
REMARK  188  A    between atoms: _441  and  _442
REMARK  189  A    between atoms: _445  and  _447
REMARK  190  A    between atoms: _447  and  _448
REMARK  191  A    between atoms: _447  and  _450
REMARK  192  A    between atoms: _450  and  _451
REMARK  193  A    between atoms: _453  and  _455
REMARK  194  A    between atoms: _455  and  _456
REMARK  195  A    between atoms: _455  and  _458
REMARK  196  A    between atoms: _458  and  _459
REMARK  197  A    between atoms: _459  and  _460
REMARK  198  A    between atoms: _460  and  _461
REMARK  199  A    between atoms: _461  and  _462
REMARK  200  A    between atoms: _466  and  _468
REMARK  201  A    between atoms: _468  and  _469
REMARK  202  A    between atoms: _471  and  _473
REMARK  203  A    between atoms: _473  and  _474
REMARK  204  A    between atoms: _477  and  _479
REMARK  205  A    between atoms: _479  and  _480
REMARK  206  A    between atoms: _479  and  _482
REMARK  207  A    between atoms: _483  and  _484
REMARK  208  A    between atoms: _487  and  _489
REMARK  209  A    between atoms: _489  and  _490
REMARK  210  A    between atoms: _489  and  _492
REMARK  211  A    between atoms: _492  and  _493
REMARK  212  A    between atoms: _493  and  _494
REMARK  213  A    between atoms: _494  and  _495
REMARK  214  A    between atoms: _504  and  _506
REMARK  215  A    between atoms: _506  and  _507
REMARK  216  A    between atoms: _510  and  _512
REMARK  217  A    between atoms: _512  and  _513
REMARK  218  A    between atoms: _512  and  _515
REMARK  219  A    between atoms: _515  and  _516
REMARK  220  A    between atoms: _519  and  _521
REMARK  221  A    between atoms: _521  and  _522
REMARK  222  A    between atoms: _521  and  _524
REMARK  223  A    between atoms: _524  and  _525
REMARK  224  A    between atoms: _528  and  _530
REMARK  225  A    between atoms: _530  and  _531
REMARK  226  A    between atoms: _530  and  _533
REMARK  227  A    between atoms: _533  and  _534
REMARK  228  A    between atoms: _537  and  _539
REMARK  229  A    between atoms: _539  and  _540
REMARK  230  A    between atoms: _539  and  _542
REMARK  231  A    between atoms: _542  and  _543
REMARK  232  A    between atoms: _543  and  _544
REMARK  233  A    between atoms: _544  and  _545
REMARK  234  A    between atoms: _545  and  _546
REMARK  235  A    between atoms: _550  and  _552
REMARK  236  A    between atoms: _552  and  _553
REMARK  237  A    between atoms: _552  and  _555
REMARK  238  A    between atoms: _555  and  _556
REMARK  239  A    between atoms: _559  and  _561
REMARK  240  A    between atoms: _561  and  _562
REMARK  241  A    between atoms: _561  and  _564
REMARK  242  A    between atoms: _564  and  _565
REMARK  243  A    between atoms: _565  and  _566
REMARK  244  A    between atoms: _569  and  _570
REMARK  245  A    between atoms: _575  and  _577
REMARK  246  A    between atoms: _577  and  _578
REMARK  247  A    between atoms: _577  and  _580
REMARK  248  A    between atoms: _580  and  _581
REMARK  249  A    between atoms: _584  and  _586
REMARK  250  A    between atoms: _586  and  _587
REMARK  251  A    between atoms: _586  and  _589
REMARK  252  A    between atoms: _589  and  _590
REMARK  253  A    between atoms: _593  and  _595
REMARK  254  A    between atoms: _595  and  _596
REMARK  255  A    between atoms: _595  and  _598
REMARK  256  A    between atoms: _598  and  _599
REMARK  257  A    between atoms: _599  and  _600
REMARK  258  A    between atoms: _600  and  _601
REMARK  259  A    between atoms: _610  and  _612
REMARK  260  A    between atoms: _612  and  _613
REMARK  261  A    between atoms: _612  and  _615
REMARK  262  A    between atoms: _615  and  _616
REMARK  263  A    between atoms: _616  and  _617
REMARK  264  A    between atoms: _619  and  _621
REMARK  265  A    between atoms: _621  and  _622
REMARK  266  A    between atoms: _621  and  _624
REMARK  267  A    between atoms: _624  and  _625
REMARK                            x       y       z     vdW  Elec       q    Type
REMARK                         _______ _______ _______ _____ _____    ______ ____
ROOT
ATOM      1  O   HOH     1      52.124  12.621  81.989  0.00  0.00    +0.000 OA
ENDROOT
TORSDOF 0
REMARK  Name = ../refined-set-2016/1fd0/1fd0_pocket.pdb
REMARK  267 active torsions:
REMARK  status: ('A' for Active; 'I' for Inactive)
REMARK    1  A    between atoms: _1  and  _3
REMARK    2  A    between atoms: _3  and  _4
REMARK    3  A    between atoms: _3  and  _6
REMARK    4  A    between atoms: _6  and  _7
REMARK    5  A    between atoms: _10  and  _12
REMARK    6  A    between atoms: _12  and  _13
REMARK    7  A    between atoms: _12  and  _15
REMARK    8  A    between atoms: _15  and  _16
REMARK    9  A    between atoms: _23  and  _24
REMARK   10  A    between atoms: _29  and  _31
REMARK   11  A    between atoms: _31  and  _32
REMARK   12  A    between atoms: _31  and  _34
REMARK   13  A    between atoms: _34  and  _35
REMARK   14  A    between atoms: _38  and  _40
REMARK   15  A    between atoms: _40  and  _41
REMARK   16  A    between atoms: _40  and  _43
REMARK   17  A    between atoms: _43  and  _44
REMARK   18  A    between atoms: _47  and  _49
REMARK   19  A    between atoms: _49  and  _50
REMARK   20  A    between atoms: _49  and  _52
REMARK   21  A    between atoms: _52  and  _53
REMARK   22  A    between atoms: _63  and  _65
REMARK   23  A    between atoms: _65  and  _66
REMARK   24  A    between atoms: _65  and  _68
REMARK   25  A    between atoms: _68  and  _69
REMARK   26  A    between atoms: _69  and  _70
REMARK   27  A    between atoms: _70  and  _71
REMARK   28  A    between atoms: _71  and  _72
REMARK   29  A    between atoms: _76  and  _78
REMARK   30  A    between atoms: _78  and  _79
REMARK   31  A    between atoms: _78  and  _81
REMARK   32  A    between atoms: _81  and  _82
REMARK   33  A    between atoms: _88  and  _90
REMARK   34  A    between atoms: _90  and  _91
REMARK   35  A    between atoms: _90  and  _93
REMARK   36  A    between atoms: _93  and  _94
REMARK   37  A    between atoms: _96  and  _98
REMARK   38  A    between atoms: _98  and  _99
REMARK   39  A    between atoms: _98  and  _101
REMARK   40  A    between atoms: _101  and  _102
REMARK   41  A    between atoms: _102  and  _103
REMARK   42  A    between atoms: _106  and  _108
REMARK   43  A    between atoms: _108  and  _109
REMARK   44  A    between atoms: _108  and  _111
REMARK   45  A    between atoms: _111  and  _112
REMARK   46  A    between atoms: _115  and  _117
REMARK   47  A    between atoms: _117  and  _118
REMARK   48  A    between atoms: _121  and  _123
REMARK   49  A    between atoms: _123  and  _124
REMARK   50  A    between atoms: _123  and  _126
REMARK   51  A    between atoms: _126  and  _127
REMARK   52  A    between atoms: _130  and  _132
REMARK   53  A    between atoms: _132  and  _133
REMARK   54  A    between atoms: _132  and  _135
REMARK   55  A    between atoms: _135  and  _136
REMARK   56  A    between atoms: _136  and  _137
REMARK   57  A    between atoms: _137  and  _138
REMARK   58  A    between atoms: _138  and  _139
REMARK   59  A    between atoms: _143  and  _145
REMARK   60  A    between atoms: _145  and  _146
REMARK   61  A    between atoms: _145  and  _148
REMARK   62  A    between atoms: _150  and  _152
REMARK   63  A    between atoms: _152  and  _153
REMARK   64  A    between atoms: _152  and  _155
REMARK   65  A    between atoms: _155  and  _156
REMARK   66  A    between atoms: _159  and  _161
REMARK   67  A    between atoms: _161  and  _162
REMARK   68  A    between atoms: _161  and  _164
REMARK   69  A    between atoms: _164  and  _165
REMARK   70  A    between atoms: _165  and  _166
REMARK   71  A    between atoms: _166  and  _167
REMARK   72  A    between atoms: _167  and  _168
REMARK   73  A    between atoms: _172  and  _174
REMARK   74  A    between atoms: _174  and  _175
REMARK   75  A    between atoms: _174  and  _177
REMARK   76  A    between atoms: _177  and  _178
REMARK   77  A    between atoms: _181  and  _183
REMARK   78  A    between atoms: _183  and  _184
REMARK   79  A    between atoms: _183  and  _186
REMARK   80  A    between atoms: _188  and  _190
REMARK   81  A    between atoms: _190  and  _191
REMARK   82  A    between atoms: _190  and  _193
REMARK   83  A    between atoms: _193  and  _194
REMARK   84  A    between atoms: _197  and  _199
REMARK   85  A    between atoms: _199  and  _200
REMARK   86  A    between atoms: _199  and  _202
REMARK   87  A    between atoms: _202  and  _203
REMARK   88  A    between atoms: _206  and  _208
REMARK   89  A    between atoms: _208  and  _209
REMARK   90  A    between atoms: _208  and  _211
REMARK   91  A    between atoms: _211  and  _212
REMARK   92  A    between atoms: _215  and  _217
REMARK   93  A    between atoms: _217  and  _218
REMARK   94  A    between atoms: _217  and  _220
REMARK   95  A    between atoms: _220  and  _221
REMARK   96  A    between atoms: _224  and  _226
REMARK   97  A    between atoms: _226  and  _227
REMARK   98  A    between atoms: _226  and  _229
REMARK   99  A    between atoms: _229  and  _230
REMARK  100  A    between atoms: _230  and  _231
REMARK  101  A    between atoms: _233  and  _235
REMARK  102  A    between atoms: _235  and  _236
REMARK  103  A    between atoms: _235  and  _238
REMARK  104  A    between atoms: _238  and  _239
REMARK  105  A    between atoms: _242  and  _244
REMARK  106  A    between atoms: _244  and  _245
REMARK  107  A    between atoms: _244  and  _247
REMARK  108  A    between atoms: _247  and  _248
REMARK  109  A    between atoms: _248  and  _249
REMARK  110  A    between atoms: _249  and  _250
REMARK  111  A    between atoms: _259  and  _261
REMARK  112  A    between atoms: _261  and  _262
REMARK  113  A    between atoms: _261  and  _264
REMARK  114  A    between atoms: _264  and  _265
REMARK  115  A    between atoms: _268  and  _270
REMARK  116  A    between atoms: _270  and  _271
REMARK  117  A    between atoms: _270  and  _273
REMARK  118  A    between atoms: _275  and  _277
REMARK  119  A    between atoms: _277  and  _278
REMARK  120  A    between atoms: _277  and  _280
REMARK  121  A    between atoms: _280  and  _281
REMARK  122  A    between atoms: _284  and  _286
REMARK  123  A    between atoms: _286  and  _287
REMARK  124  A    between atoms: _286  and  _289
REMARK  125  A    between atoms: _289  and  _290
REMARK  126  A    between atoms: _290  and  _291
REMARK  127  A    between atoms: _291  and  _292
REMARK  128  A    between atoms: _301  and  _303
REMARK  129  A    between atoms: _303  and  _304
REMARK  130  A    between atoms: _303  and  _306
REMARK  131  A    between atoms: _306  and  _307
REMARK  132  A    between atoms: _307  and  _308
REMARK  133  A    between atoms: _310  and  _312
REMARK  134  A    between atoms: _312  and  _313
REMARK  135  A    between atoms: _312  and  _315
REMARK  136  A    between atoms: _315  and  _316
REMARK  137  A    between atoms: _319  and  _321
REMARK  138  A    between atoms: _321  and  _322
REMARK  139  A    between atoms: _321  and  _324
REMARK  140  A    between atoms: _324  and  _325
REMARK  141  A    between atoms: _331  and  _333
REMARK  142  A    between atoms: _333  and  _334
REMARK  143  A    between atoms: _333  and  _336
REMARK  144  A    between atoms: _336  and  _337
REMARK  145  A    between atoms: _339  and  _341
REMARK  146  A    between atoms: _341  and  _342
REMARK  147  A    between atoms: _341  and  _344
REMARK  148  A    between atoms: _344  and  _345
REMARK  149  A    between atoms: _348  and  _350
REMARK  150  A    between atoms: _350  and  _351
REMARK  151  A    between atoms: _353  and  _355
REMARK  152  A    between atoms: _355  and  _356
REMARK  153  A    between atoms: _355  and  _358
REMARK  154  A    between atoms: _358  and  _359
REMARK  155  A    between atoms: _362  and  _364
REMARK  156  A    between atoms: _364  and  _365
REMARK  157  A    between atoms: _364  and  _367
REMARK  158  A    between atoms: _367  and  _368
REMARK  159  A    between atoms: _368  and  _369
REMARK  160  A    between atoms: _371  and  _373
REMARK  161  A    between atoms: _373  and  _374
REMARK  162  A    between atoms: _373  and  _376
REMARK  163  A    between atoms: _376  and  _377
REMARK  164  A    between atoms: _382  and  _384
REMARK  165  A    between atoms: _384  and  _385
REMARK  166  A    between atoms: _388  and  _390
REMARK  167  A    between atoms: _390  and  _391
REMARK  168  A    between atoms: _393  and  _395
REMARK  169  A    between atoms: _395  and  _396
REMARK  170  A    between atoms: _395  and  _398
REMARK  171  A    between atoms: _398  and  _399
REMARK  172  A    between atoms: _405  and  _407
REMARK  173  A    between atoms: _407  and  _408
REMARK  174  A    between atoms: _410  and  _412
REMARK  175  A    between atoms: _412  and  _413
REMARK  176  A    between atoms: _412  and  _415
REMARK  177  A    between atoms: _415  and  _416
REMARK  178  A    between atoms: _419  and  _421
REMARK  179  A    between atoms: _421  and  _422
REMARK  180  A    between atoms: _421  and  _424
REMARK  181  A    between atoms: _424  and  _425
REMARK  182  A    between atoms: _428  and  _430
REMARK  183  A    between atoms: _430  and  _431
REMARK  184  A    between atoms: _430  and  _433
REMARK  185  A    between atoms: _436  and  _438
REMARK  186  A    between atoms: _438  and  _439
REMARK  187  A    between atoms: _438  and  _441
REMARK  188  A    between atoms: _441  and  _442
REMARK  189  A    between atoms: _445  and  _447
REMARK  190  A    between atoms: _447  and  _448
REMARK  191  A    between atoms: _447  and  _450
REMARK  192  A    between atoms: _450  and  _451
REMARK  193  A    between atoms: _453  and  _455
REMARK  194  A    between atoms: _455  and  _456
REMARK  195  A    between atoms: _455  and  _458
REMARK  196  A    between atoms: _458  and  _459
REMARK  197  A    between atoms: _459  and  _460
REMARK  198  A    between atoms: _460  and  _461
REMARK  199  A    between atoms: _461  and  _462
REMARK  200  A    between atoms: _466  and  _468
REMARK  201  A    between atoms: _468  and  _469
REMARK  202  A    between atoms: _471  and  _473
REMARK  203  A    between atoms: _473  and  _474
REMARK  204  A    between atoms: _477  and  _479
REMARK  205  A    between atoms: _479  and  _480
REMARK  206  A    between atoms: _479  and  _482
REMARK  207  A    between atoms: _483  and  _484
REMARK  208  A    between atoms: _487  and  _489
REMARK  209  A    between atoms: _489  and  _490
REMARK  210  A    between atoms: _489  and  _492
REMARK  211  A    between atoms: _492  and  _493
REMARK  212  A    between atoms: _493  and  _494
REMARK  213  A    between atoms: _494  and  _495
REMARK  214  A    between atoms: _504  and  _506
REMARK  215  A    between atoms: _506  and  _507
REMARK  216  A    between atoms: _510  and  _512
REMARK  217  A    between atoms: _512  and  _513
REMARK  218  A    between atoms: _512  and  _515
REMARK  219  A    between atoms: _515  and  _516
REMARK  220  A    between atoms: _519  and  _521
REMARK  221  A    between atoms: _521  and  _522
REMARK  222  A    between atoms: _521  and  _524
REMARK  223  A    between atoms: _524  and  _525
REMARK  224  A    between atoms: _528  and  _530
REMARK  225  A    between atoms: _530  and  _531
REMARK  226  A    between atoms: _530  and  _533
REMARK  227  A    between atoms: _533  and  _534
REMARK  228  A    between atoms: _537  and  _539
REMARK  229  A    between atoms: _539  and  _540
REMARK  230  A    between atoms: _539  and  _542
REMARK  231  A    between atoms: _542  and  _543
REMARK  232  A    between atoms: _543  and  _544
REMARK  233  A    between atoms: _544  and  _545
REMARK  234  A    between atoms: _545  and  _546
REMARK  235  A    between atoms: _550  and  _552
REMARK  236  A    between atoms: _552  and  _553
REMARK  237  A    between atoms: _552  and  _555
REMARK  238  A    between atoms: _555  and  _556
REMARK  239  A    between atoms: _559  and  _561
REMARK  240  A    between atoms: _561  and  _562
REMARK  241  A    between atoms: _561  and  _564
REMARK  242  A    between atoms: _564  and  _565
REMARK  243  A    between atoms: _565  and  _566
REMARK  244  A    between atoms: _569  and  _570
REMARK  245  A    between atoms: _575  and  _577
REMARK  246  A    between atoms: _577  and  _578
REMARK  247  A    between atoms: _577  and  _580
REMARK  248  A    between atoms: _580  and  _581
REMARK  249  A    between atoms: _584  and  _586
REMARK  250  A    between atoms: _586  and  _587
REMARK  251  A    between atoms: _586  and  _589
REMARK  252  A    between atoms: _589  and  _590
REMARK  253  A    between atoms: _593  and  _595
REMARK  254  A    between atoms: _595  and  _596
REMARK  255  A    between atoms: _595  and  _598
REMARK  256  A    between atoms: _598  and  _599
REMARK  257  A    between atoms: _599  and  _600
REMARK  258  A    between atoms: _600  and  _601
REMARK  259  A    between atoms: _610  and  _612
REMARK  260  A    between atoms: _612  and  _613
REMARK  261  A    between atoms: _612  and  _615
REMARK  262  A    between atoms: _615  and  _616
REMARK  263  A    between atoms: _616  and  _617
REMARK  264  A    between atoms: _619  and  _621
REMARK  265  A    between atoms: _621  and  _622
REMARK  266  A    between atoms: _621  and  _624
REMARK  267  A    between atoms: _624  and  _625
REMARK                            x       y       z     vdW  Elec       q    Type
REMARK                         _______ _______ _______ _____ _____    ______ ____
ROOT
ATOM      1  O   HOH     1      53.506  14.688  81.321  0.00  0.00    +0.000 OA
ENDROOT
TORSDOF 0
REMARK  Name = ../refined-set-2016/1fd0/1fd0_pocket.pdb
REMARK  267 active torsions:
REMARK  status: ('A' for Active; 'I' for Inactive)
REMARK    1  A    between atoms: _1  and  _3
REMARK    2  A    between atoms: _3  and  _4
REMARK    3  A    between atoms: _3  and  _6
REMARK    4  A    between atoms: _6  and  _7
REMARK    5  A    between atoms: _10  and  _12
REMARK    6  A    between atoms: _12  and  _13
REMARK    7  A    between atoms: _12  and  _15
REMARK    8  A    between atoms: _15  and  _16
REMARK    9  A    between atoms: _23  and  _24
REMARK   10  A    between atoms: _29  and  _31
REMARK   11  A    between atoms: _31  and  _32
REMARK   12  A    between atoms: _31  and  _34
REMARK   13  A    between atoms: _34  and  _35
REMARK   14  A    between atoms: _38  and  _40
REMARK   15  A    between atoms: _40  and  _41
REMARK   16  A    between atoms: _40  and  _43
REMARK   17  A    between atoms: _43  and  _44
REMARK   18  A    between atoms: _47  and  _49
REMARK   19  A    between atoms: _49  and  _50
REMARK   20  A    between atoms: _49  and  _52
REMARK   21  A    between atoms: _52  and  _53
REMARK   22  A    between atoms: _63  and  _65
REMARK   23  A    between atoms: _65  and  _66
REMARK   24  A    between atoms: _65  and  _68
REMARK   25  A    between atoms: _68  and  _69
REMARK   26  A    between atoms: _69  and  _70
REMARK   27  A    between atoms: _70  and  _71
REMARK   28  A    between atoms: _71  and  _72
REMARK   29  A    between atoms: _76  and  _78
REMARK   30  A    between atoms: _78  and  _79
REMARK   31  A    between atoms: _78  and  _81
REMARK   32  A    between atoms: _81  and  _82
REMARK   33  A    between atoms: _88  and  _90
REMARK   34  A    between atoms: _90  and  _91
REMARK   35  A    between atoms: _90  and  _93
REMARK   36  A    between atoms: _93  and  _94
REMARK   37  A    between atoms: _96  and  _98
REMARK   38  A    between atoms: _98  and  _99
REMARK   39  A    between atoms: _98  and  _101
REMARK   40  A    between atoms: _101  and  _102
REMARK   41  A    between atoms: _102  and  _103
REMARK   42  A    between atoms: _106  and  _108
REMARK   43  A    between atoms: _108  and  _109
REMARK   44  A    between atoms: _108  and  _111
REMARK   45  A    between atoms: _111  and  _112
REMARK   46  A    between atoms: _115  and  _117
REMARK   47  A    between atoms: _117  and  _118
REMARK   48  A    between atoms: _121  and  _123
REMARK   49  A    between atoms: _123  and  _124
REMARK   50  A    between atoms: _123  and  _126
REMARK   51  A    between atoms: _126  and  _127
REMARK   52  A    between atoms: _130  and  _132
REMARK   53  A    between atoms: _132  and  _133
REMARK   54  A    between atoms: _132  and  _135
REMARK   55  A    between atoms: _135  and  _136
REMARK   56  A    between atoms: _136  and  _137
REMARK   57  A    between atoms: _137  and  _138
REMARK   58  A    between atoms: _138  and  _139
REMARK   59  A    between atoms: _143  and  _145
REMARK   60  A    between atoms: _145  and  _146
REMARK   61  A    between atoms: _145  and  _148
REMARK   62  A    between atoms: _150  and  _152
REMARK   63  A    between atoms: _152  and  _153
REMARK   64  A    between atoms: _152  and  _155
REMARK   65  A    between atoms: _155  and  _156
REMARK   66  A    between atoms: _159  and  _161
REMARK   67  A    between atoms: _161  and  _162
REMARK   68  A    between atoms: _161  and  _164
REMARK   69  A    between atoms: _164  and  _165
REMARK   70  A    between atoms: _165  and  _166
REMARK   71  A    between atoms: _166  and  _167
REMARK   72  A    between atoms: _167  and  _168
REMARK   73  A    between atoms: _172  and  _174
REMARK   74  A    between atoms: _174  and  _175
REMARK   75  A    between atoms: _174  and  _177
REMARK   76  A    between atoms: _177  and  _178
REMARK   77  A    between atoms: _181  and  _183
REMARK   78  A    between atoms: _183  and  _184
REMARK   79  A    between atoms: _183  and  _186
REMARK   80  A    between atoms: _188  and  _190
REMARK   81  A    between atoms: _190  and  _191
REMARK   82  A    between atoms: _190  and  _193
REMARK   83  A    between atoms: _193  and  _194
REMARK   84  A    between atoms: _197  and  _199
REMARK   85  A    between atoms: _199  and  _200
REMARK   86  A    between atoms: _199  and  _202
REMARK   87  A    between atoms: _202  and  _203
REMARK   88  A    between atoms: _206  and  _208
REMARK   89  A    between atoms: _208  and  _209
REMARK   90  A    between atoms: _208  and  _211
REMARK   91  A    between atoms: _211  and  _212
REMARK   92  A    between atoms: _215  and  _217
REMARK   93  A    between atoms: _217  and  _218
REMARK   94  A    between atoms: _217  and  _220
REMARK   95  A    between atoms: _220  and  _221
REMARK   96  A    between atoms: _224  and  _226
REMARK   97  A    between atoms: _226  and  _227
REMARK   98  A    between atoms: _226  and  _229
REMARK   99  A    between atoms: _229  and  _230
REMARK  100  A    between atoms: _230  and  _231
REMARK  101  A    between atoms: _233  and  _235
REMARK  102  A    between atoms: _235  and  _236
REMARK  103  A    between atoms: _235  and  _238
REMARK  104  A    between atoms: _238  and  _239
REMARK  105  A    between atoms: _242  and  _244
REMARK  106  A    between atoms: _244  and  _245
REMARK  107  A    between atoms: _244  and  _247
REMARK  108  A    between atoms: _247  and  _248
REMARK  109  A    between atoms: _248  and  _249
REMARK  110  A    between atoms: _249  and  _250
REMARK  111  A    between atoms: _259  and  _261
REMARK  112  A    between atoms: _261  and  _262
REMARK  113  A    between atoms: _261  and  _264
REMARK  114  A    between atoms: _264  and  _265
REMARK  115  A    between atoms: _268  and  _270
REMARK  116  A    between atoms: _270  and  _271
REMARK  117  A    between atoms: _270  and  _273
REMARK  118  A    between atoms: _275  and  _277
REMARK  119  A    between atoms: _277  and  _278
REMARK  120  A    between atoms: _277  and  _280
REMARK  121  A    between atoms: _280  and  _281
REMARK  122  A    between atoms: _284  and  _286
REMARK  123  A    between atoms: _286  and  _287
REMARK  124  A    between atoms: _286  and  _289
REMARK  125  A    between atoms: _289  and  _290
REMARK  126  A    between atoms: _290  and  _291
REMARK  127  A    between atoms: _291  and  _292
REMARK  128  A    between atoms: _301  and  _303
REMARK  129  A    between atoms: _303  and  _304
REMARK  130  A    between atoms: _303  and  _306
REMARK  131  A    between atoms: _306  and  _307
REMARK  132  A    between atoms: _307  and  _308
REMARK  133  A    between atoms: _310  and  _312
REMARK  134  A    between atoms: _312  and  _313
REMARK  135  A    between atoms: _312  and  _315
REMARK  136  A    between atoms: _315  and  _316
REMARK  137  A    between atoms: _319  and  _321
REMARK  138  A    between atoms: _321  and  _322
REMARK  139  A    between atoms: _321  and  _324
REMARK  140  A    between atoms: _324  and  _325
REMARK  141  A    between atoms: _331  and  _333
REMARK  142  A    between atoms: _333  and  _334
REMARK  143  A    between atoms: _333  and  _336
REMARK  144  A    between atoms: _336  and  _337
REMARK  145  A    between atoms: _339  and  _341
REMARK  146  A    between atoms: _341  and  _342
REMARK  147  A    between atoms: _341  and  _344
REMARK  148  A    between atoms: _344  and  _345
REMARK  149  A    between atoms: _348  and  _350
REMARK  150  A    between atoms: _350  and  _351
REMARK  151  A    between atoms: _353  and  _355
REMARK  152  A    between atoms: _355  and  _356
REMARK  153  A    between atoms: _355  and  _358
REMARK  154  A    between atoms: _358  and  _359
REMARK  155  A    between atoms: _362  and  _364
REMARK  156  A    between atoms: _364  and  _365
REMARK  157  A    between atoms: _364  and  _367
REMARK  158  A    between atoms: _367  and  _368
REMARK  159  A    between atoms: _368  and  _369
REMARK  160  A    between atoms: _371  and  _373
REMARK  161  A    between atoms: _373  and  _374
REMARK  162  A    between atoms: _373  and  _376
REMARK  163  A    between atoms: _376  and  _377
REMARK  164  A    between atoms: _382  and  _384
REMARK  165  A    between atoms: _384  and  _385
REMARK  166  A    between atoms: _388  and  _390
REMARK  167  A    between atoms: _390  and  _391
REMARK  168  A    between atoms: _393  and  _395
REMARK  169  A    between atoms: _395  and  _396
REMARK  170  A    between atoms: _395  and  _398
REMARK  171  A    between atoms: _398  and  _399
REMARK  172  A    between atoms: _405  and  _407
REMARK  173  A    between atoms: _407  and  _408
REMARK  174  A    between atoms: _410  and  _412
REMARK  175  A    between atoms: _412  and  _413
REMARK  176  A    between atoms: _412  and  _415
REMARK  177  A    between atoms: _415  and  _416
REMARK  178  A    between atoms: _419  and  _421
REMARK  179  A    between atoms: _421  and  _422
REMARK  180  A    between atoms: _421  and  _424
REMARK  181  A    between atoms: _424  and  _425
REMARK  182  A    between atoms: _428  and  _430
REMARK  183  A    between atoms: _430  and  _431
REMARK  184  A    between atoms: _430  and  _433
REMARK  185  A    between atoms: _436  and  _438
REMARK  186  A    between atoms: _438  and  _439
REMARK  187  A    between atoms: _438  and  _441
REMARK  188  A    between atoms: _441  and  _442
REMARK  189  A    between atoms: _445  and  _447
REMARK  190  A    between atoms: _447  and  _448
REMARK  191  A    between atoms: _447  and  _450
REMARK  192  A    between atoms: _450  and  _451
REMARK  193  A    between atoms: _453  and  _455
REMARK  194  A    between atoms: _455  and  _456
REMARK  195  A    between atoms: _455  and  _458
REMARK  196  A    between atoms: _458  and  _459
REMARK  197  A    between atoms: _459  and  _460
REMARK  198  A    between atoms: _460  and  _461
REMARK  199  A    between atoms: _461  and  _462
REMARK  200  A    between atoms: _466  and  _468
REMARK  201  A    between atoms: _468  and  _469
REMARK  202  A    between atoms: _471  and  _473
REMARK  203  A    between atoms: _473  and  _474
REMARK  204  A    between atoms: _477  and  _479
REMARK  205  A    between atoms: _479  and  _480
REMARK  206  A    between atoms: _479  and  _482
REMARK  207  A    between atoms: _483  and  _484
REMARK  208  A    between atoms: _487  and  _489
REMARK  209  A    between atoms: _489  and  _490
REMARK  210  A    between atoms: _489  and  _492
REMARK  211  A    between atoms: _492  and  _493
REMARK  212  A    between atoms: _493  and  _494
REMARK  213  A    between atoms: _494  and  _495
REMARK  214  A    between atoms: _504  and  _506
REMARK  215  A    between atoms: _506  and  _507
REMARK  216  A    between atoms: _510  and  _512
REMARK  217  A    between atoms: _512  and  _513
REMARK  218  A    between atoms: _512  and  _515
REMARK  219  A    between atoms: _515  and  _516
REMARK  220  A    between atoms: _519  and  _521
REMARK  221  A    between atoms: _521  and  _522
REMARK  222  A    between atoms: _521  and  _524
REMARK  223  A    between atoms: _524  and  _525
REMARK  224  A    between atoms: _528  and  _530
REMARK  225  A    between atoms: _530  and  _531
REMARK  226  A    between atoms: _530  and  _533
REMARK  227  A    between atoms: _533  and  _534
REMARK  228  A    between atoms: _537  and  _539
REMARK  229  A    between atoms: _539  and  _540
REMARK  230  A    between atoms: _539  and  _542
REMARK  231  A    between atoms: _542  and  _543
REMARK  232  A    between atoms: _543  and  _544
REMARK  233  A    between atoms: _544  and  _545
REMARK  234  A    between atoms: _545  and  _546
REMARK  235  A    between atoms: _550  and  _552
REMARK  236  A    between atoms: _552  and  _553
REMARK  237  A    between atoms: _552  and  _555
REMARK  238  A    between atoms: _555  and  _556
REMARK  239  A    between atoms: _559  and  _561
REMARK  240  A    between atoms: _561  and  _562
REMARK  241  A    between atoms: _561  and  _564
REMARK  242  A    between atoms: _564  and  _565
REMARK  243  A    between atoms: _565  and  _566
REMARK  244  A    between atoms: _569  and  _570
REMARK  245  A    between atoms: _575  and  _577
REMARK  246  A    between atoms: _577  and  _578
REMARK  247  A    between atoms: _577  and  _580
REMARK  248  A    between atoms: _580  and  _581
REMARK  249  A    between atoms: _584  and  _586
REMARK  250  A    between atoms: _586  and  _587
REMARK  251  A    between atoms: _586  and  _589
REMARK  252  A    between atoms: _589  and  _590
REMARK  253  A    between atoms: _593  and  _595
REMARK  254  A    between atoms: _595  and  _596
REMARK  255  A    between atoms: _595  and  _598
REMARK  256  A    between atoms: _598  and  _599
REMARK  257  A    between atoms: _599  and  _600
REMARK  258  A    between atoms: _600  and  _601
REMARK  259  A    between atoms: _610  and  _612
REMARK  260  A    between atoms: _612  and  _613
REMARK  261  A    between atoms: _612  and  _615
REMARK  262  A    between atoms: _615  and  _616
REMARK  263  A    between atoms: _616  and  _617
REMARK  264  A    between atoms: _619  and  _621
REMARK  265  A    between atoms: _621  and  _622
REMARK  266  A    between atoms: _621  and  _624
REMARK  267  A    between atoms: _624  and  _625
REMARK                            x       y       z     vdW  Elec       q    Type
REMARK                         _______ _______ _______ _____ _____    ______ ____
ROOT
ATOM      1  O   HOH     1      51.535  18.704  80.491  0.00  0.00    +0.000 OA
ENDROOT
TORSDOF 0
REMARK  Name = ../refined-set-2016/1fd0/1fd0_pocket.pdb
REMARK  267 active torsions:
REMARK  status: ('A' for Active; 'I' for Inactive)
REMARK    1  A    between atoms: _1  and  _3
REMARK    2  A    between atoms: _3  and  _4
REMARK    3  A    between atoms: _3  and  _6
REMARK    4  A    between atoms: _6  and  _7
REMARK    5  A    between atoms: _10  and  _12
REMARK    6  A    between atoms: _12  and  _13
REMARK    7  A    between atoms: _12  and  _15
REMARK    8  A    between atoms: _15  and  _16
REMARK    9  A    between atoms: _23  and  _24
REMARK   10  A    between atoms: _29  and  _31
REMARK   11  A    between atoms: _31  and  _32
REMARK   12  A    between atoms: _31  and  _34
REMARK   13  A    between atoms: _34  and  _35
REMARK   14  A    between atoms: _38  and  _40
REMARK   15  A    between atoms: _40  and  _41
REMARK   16  A    between atoms: _40  and  _43
REMARK   17  A    between atoms: _43  and  _44
REMARK   18  A    between atoms: _47  and  _49
REMARK   19  A    between atoms: _49  and  _50
REMARK   20  A    between atoms: _49  and  _52
REMARK   21  A    between atoms: _52  and  _53
REMARK   22  A    between atoms: _63  and  _65
REMARK   23  A    between atoms: _65  and  _66
REMARK   24  A    between atoms: _65  and  _68
REMARK   25  A    between atoms: _68  and  _69
REMARK   26  A    between atoms: _69  and  _70
REMARK   27  A    between atoms: _70  and  _71
REMARK   28  A    between atoms: _71  and  _72
REMARK   29  A    between atoms: _76  and  _78
REMARK   30  A    between atoms: _78  and  _79
REMARK   31  A    between atoms: _78  and  _81
REMARK   32  A    between atoms: _81  and  _82
REMARK   33  A    between atoms: _88  and  _90
REMARK   34  A    between atoms: _90  and  _91
REMARK   35  A    between atoms: _90  and  _93
REMARK   36  A    between atoms: _93  and  _94
REMARK   37  A    between atoms: _96  and  _98
REMARK   38  A    between atoms: _98  and  _99
REMARK   39  A    between atoms: _98  and  _101
REMARK   40  A    between atoms: _101  and  _102
REMARK   41  A    between atoms: _102  and  _103
REMARK   42  A    between atoms: _106  and  _108
REMARK   43  A    between atoms: _108  and  _109
REMARK   44  A    between atoms: _108  and  _111
REMARK   45  A    between atoms: _111  and  _112
REMARK   46  A    between atoms: _115  and  _117
REMARK   47  A    between atoms: _117  and  _118
REMARK   48  A    between atoms: _121  and  _123
REMARK   49  A    between atoms: _123  and  _124
REMARK   50  A    between atoms: _123  and  _126
REMARK   51  A    between atoms: _126  and  _127
REMARK   52  A    between atoms: _130  and  _132
REMARK   53  A    between atoms: _132  and  _133
REMARK   54  A    between atoms: _132  and  _135
REMARK   55  A    between atoms: _135  and  _136
REMARK   56  A    between atoms: _136  and  _137
REMARK   57  A    between atoms: _137  and  _138
REMARK   58  A    between atoms: _138  and  _139
REMARK   59  A    between atoms: _143  and  _145
REMARK   60  A    between atoms: _145  and  _146
REMARK   61  A    between atoms: _145  and  _148
REMARK   62  A    between atoms: _150  and  _152
REMARK   63  A    between atoms: _152  and  _153
REMARK   64  A    between atoms: _152  and  _155
REMARK   65  A    between atoms: _155  and  _156
REMARK   66  A    between atoms: _159  and  _161
REMARK   67  A    between atoms: _161  and  _162
REMARK   68  A    between atoms: _161  and  _164
REMARK   69  A    between atoms: _164  and  _165
REMARK   70  A    between atoms: _165  and  _166
REMARK   71  A    between atoms: _166  and  _167
REMARK   72  A    between atoms: _167  and  _168
REMARK   73  A    between atoms: _172  and  _174
REMARK   74  A    between atoms: _174  and  _175
REMARK   75  A    between atoms: _174  and  _177
REMARK   76  A    between atoms: _177  and  _178
REMARK   77  A    between atoms: _181  and  _183
REMARK   78  A    between atoms: _183  and  _184
REMARK   79  A    between atoms: _183  and  _186
REMARK   80  A    between atoms: _188  and  _190
REMARK   81  A    between atoms: _190  and  _191
REMARK   82  A    between atoms: _190  and  _193
REMARK   83  A    between atoms: _193  and  _194
REMARK   84  A    between atoms: _197  and  _199
REMARK   85  A    between atoms: _199  and  _200
REMARK   86  A    between atoms: _199  and  _202
REMARK   87  A    between atoms: _202  and  _203
REMARK   88  A    between atoms: _206  and  _208
REMARK   89  A    between atoms: _208  and  _209
REMARK   90  A    between atoms: _208  and  _211
REMARK   91  A    between atoms: _211  and  _212
REMARK   92  A    between atoms: _215  and  _217
REMARK   93  A    between atoms: _217  and  _218
REMARK   94  A    between atoms: _217  and  _220
REMARK   95  A    between atoms: _220  and  _221
REMARK   96  A    between atoms: _224  and  _226
REMARK   97  A    between atoms: _226  and  _227
REMARK   98  A    between atoms: _226  and  _229
REMARK   99  A    between atoms: _229  and  _230
REMARK  100  A    between atoms: _230  and  _231
REMARK  101  A    between atoms: _233  and  _235
REMARK  102  A    between atoms: _235  and  _236
REMARK  103  A    between atoms: _235  and  _238
REMARK  104  A    between atoms: _238  and  _239
REMARK  105  A    between atoms: _242  and  _244
REMARK  106  A    between atoms: _244  and  _245
REMARK  107  A    between atoms: _244  and  _247
REMARK  108  A    between atoms: _247  and  _248
REMARK  109  A    between atoms: _248  and  _249
REMARK  110  A    between atoms: _249  and  _250
REMARK  111  A    between atoms: _259  and  _261
REMARK  112  A    between atoms: _261  and  _262
REMARK  113  A    between atoms: _261  and  _264
REMARK  114  A    between atoms: _264  and  _265
REMARK  115  A    between atoms: _268  and  _270
REMARK  116  A    between atoms: _270  and  _271
REMARK  117  A    between atoms: _270  and  _273
REMARK  118  A    between atoms: _275  and  _277
REMARK  119  A    between atoms: _277  and  _278
REMARK  120  A    between atoms: _277  and  _280
REMARK  121  A    between atoms: _280  and  _281
REMARK  122  A    between atoms: _284  and  _286
REMARK  123  A    between atoms: _286  and  _287
REMARK  124  A    between atoms: _286  and  _289
REMARK  125  A    between atoms: _289  and  _290
REMARK  126  A    between atoms: _290  and  _291
REMARK  127  A    between atoms: _291  and  _292
REMARK  128  A    between atoms: _301  and  _303
REMARK  129  A    between atoms: _303  and  _304
REMARK  130  A    between atoms: _303  and  _306
REMARK  131  A    between atoms: _306  and  _307
REMARK  132  A    between atoms: _307  and  _308
REMARK  133  A    between atoms: _310  and  _312
REMARK  134  A    between atoms: _312  and  _313
REMARK  135  A    between atoms: _312  and  _315
REMARK  136  A    between atoms: _315  and  _316
REMARK  137  A    between atoms: _319  and  _321
REMARK  138  A    between atoms: _321  and  _322
REMARK  139  A    between atoms: _321  and  _324
REMARK  140  A    between atoms: _324  and  _325
REMARK  141  A    between atoms: _331  and  _333
REMARK  142  A    between atoms: _333  and  _334
REMARK  143  A    between atoms: _333  and  _336
REMARK  144  A    between atoms: _336  and  _337
REMARK  145  A    between atoms: _339  and  _341
REMARK  146  A    between atoms: _341  and  _342
REMARK  147  A    between atoms: _341  and  _344
REMARK  148  A    between atoms: _344  and  _345
REMARK  149  A    between atoms: _348  and  _350
REMARK  150  A    between atoms: _350  and  _351
REMARK  151  A    between atoms: _353  and  _355
REMARK  152  A    between atoms: _355  and  _356
REMARK  153  A    between atoms: _355  and  _358
REMARK  154  A    between atoms: _358  and  _359
REMARK  155  A    between atoms: _362  and  _364
REMARK  156  A    between atoms: _364  and  _365
REMARK  157  A    between atoms: _364  and  _367
REMARK  158  A    between atoms: _367  and  _368
REMARK  159  A    between atoms: _368  and  _369
REMARK  160  A    between atoms: _371  and  _373
REMARK  161  A    between atoms: _373  and  _374
REMARK  162  A    between atoms: _373  and  _376
REMARK  163  A    between atoms: _376  and  _377
REMARK  164  A    between atoms: _382  and  _384
REMARK  165  A    between atoms: _384  and  _385
REMARK  166  A    between atoms: _388  and  _390
REMARK  167  A    between atoms: _390  and  _391
REMARK  168  A    between atoms: _393  and  _395
REMARK  169  A    between atoms: _395  and  _396
REMARK  170  A    between atoms: _395  and  _398
REMARK  171  A    between atoms: _398  and  _399
REMARK  172  A    between atoms: _405  and  _407
REMARK  173  A    between atoms: _407  and  _408
REMARK  174  A    between atoms: _410  and  _412
REMARK  175  A    between atoms: _412  and  _413
REMARK  176  A    between atoms: _412  and  _415
REMARK  177  A    between atoms: _415  and  _416
REMARK  178  A    between atoms: _419  and  _421
REMARK  179  A    between atoms: _421  and  _422
REMARK  180  A    between atoms: _421  and  _424
REMARK  181  A    between atoms: _424  and  _425
REMARK  182  A    between atoms: _428  and  _430
REMARK  183  A    between atoms: _430  and  _431
REMARK  184  A    between atoms: _430  and  _433
REMARK  185  A    between atoms: _436  and  _438
REMARK  186  A    between atoms: _438  and  _439
REMARK  187  A    between atoms: _438  and  _441
REMARK  188  A    between atoms: _441  and  _442
REMARK  189  A    between atoms: _445  and  _447
REMARK  190  A    between atoms: _447  and  _448
REMARK  191  A    between atoms: _447  and  _450
REMARK  192  A    between atoms: _450  and  _451
REMARK  193  A    between atoms: _453  and  _455
REMARK  194  A    between atoms: _455  and  _456
REMARK  195  A    between atoms: _455  and  _458
REMARK  196  A    between atoms: _458  and  _459
REMARK  197  A    between atoms: _459  and  _460
REMARK  198  A    between atoms: _460  and  _461
REMARK  199  A    between atoms: _461  and  _462
REMARK  200  A    between atoms: _466  and  _468
REMARK  201  A    between atoms: _468  and  _469
REMARK  202  A    between atoms: _471  and  _473
REMARK  203  A    between atoms: _473  and  _474
REMARK  204  A    between atoms: _477  and  _479
REMARK  205  A    between atoms: _479  and  _480
REMARK  206  A    between atoms: _479  and  _482
REMARK  207  A    between atoms: _483  and  _484
REMARK  208  A    between atoms: _487  and  _489
REMARK  209  A    between atoms: _489  and  _490
REMARK  210  A    between atoms: _489  and  _492
REMARK  211  A    between atoms: _492  and  _493
REMARK  212  A    between atoms: _493  and  _494
REMARK  213  A    between atoms: _494  and  _495
REMARK  214  A    between atoms: _504  and  _506
REMARK  215  A    between atoms: _506  and  _507
REMARK  216  A    between atoms: _510  and  _512
REMARK  217  A    between atoms: _512  and  _513
REMARK  218  A    between atoms: _512  and  _515
REMARK  219  A    between atoms: _515  and  _516
REMARK  220  A    between atoms: _519  and  _521
REMARK  221  A    between atoms: _521  and  _522
REMARK  222  A    between atoms: _521  and  _524
REMARK  223  A    between atoms: _524  and  _525
REMARK  224  A    between atoms: _528  and  _530
REMARK  225  A    between atoms: _530  and  _531
REMARK  226  A    between atoms: _530  and  _533
REMARK  227  A    between atoms: _533  and  _534
REMARK  228  A    between atoms: _537  and  _539
REMARK  229  A    between atoms: _539  and  _540
REMARK  230  A    between atoms: _539  and  _542
REMARK  231  A    between atoms: _542  and  _543
REMARK  232  A    between atoms: _543  and  _544
REMARK  233  A    between atoms: _544  and  _545
REMARK  234  A    between atoms: _545  and  _546
REMARK  235  A    between atoms: _550  and  _552
REMARK  236  A    between atoms: _552  and  _553
REMARK  237  A    between atoms: _552  and  _555
REMARK  238  A    between atoms: _555  and  _556
REMARK  239  A    between atoms: _559  and  _561
REMARK  240  A    between atoms: _561  and  _562
REMARK  241  A    between atoms: _561  and  _564
REMARK  242  A    between atoms: _564  and  _565
REMARK  243  A    between atoms: _565  and  _566
REMARK  244  A    between atoms: _569  and  _570
REMARK  245  A    between atoms: _575  and  _577
REMARK  246  A    between atoms: _577  and  _578
REMARK  247  A    between atoms: _577  and  _580
REMARK  248  A    between atoms: _580  and  _581
REMARK  249  A    between atoms: _584  and  _586
REMARK  250  A    between atoms: _586  and  _587
REMARK  251  A    between atoms: _586  and  _589
REMARK  252  A    between atoms: _589  and  _590
REMARK  253  A    between atoms: _593  and  _595
REMARK  254  A    between atoms: _595  and  _596
REMARK  255  A    between atoms: _595  and  _598
REMARK  256  A    between atoms: _598  and  _599
REMARK  257  A    between atoms: _599  and  _600
REMARK  258  A    between atoms: _600  and  _601
REMARK  259  A    between atoms: _610  and  _612
REMARK  260  A    between atoms: _612  and  _613
REMARK  261  A    between atoms: _612  and  _615
REMARK  262  A    between atoms: _615  and  _616
REMARK  263  A    between atoms: _616  and  _617
REMARK  264  A    between atoms: _619  and  _621
REMARK  265  A    between atoms: _621  and  _622
REMARK  266  A    between atoms: _621  and  _624
REMARK  267  A    between atoms: _624  and  _625
REMARK                            x       y       z     vdW  Elec       q    Type
REMARK                         _______ _______ _______ _____ _____    ______ ____
ROOT
ATOM      1  O   HOH     1      49.237  12.112  87.624  0.00  0.00    +0.000 OA
ENDROOT
TORSDOF 0
REMARK  Name = ../refined-set-2016/1fd0/1fd0_pocket.pdb
REMARK  267 active torsions:
REMARK  status: ('A' for Active; 'I' for Inactive)
REMARK    1  A    between atoms: _1  and  _3
REMARK    2  A    between atoms: _3  and  _4
REMARK    3  A    between atoms: _3  and  _6
REMARK    4  A    between atoms: _6  and  _7
REMARK    5  A    between atoms: _10  and  _12
REMARK    6  A    between atoms: _12  and  _13
REMARK    7  A    between atoms: _12  and  _15
REMARK    8  A    between atoms: _15  and  _16
REMARK    9  A    between atoms: _23  and  _24
REMARK   10  A    between atoms: _29  and  _31
REMARK   11  A    between atoms: _31  and  _32
REMARK   12  A    between atoms: _31  and  _34
REMARK   13  A    between atoms: _34  and  _35
REMARK   14  A    between atoms: _38  and  _40
REMARK   15  A    between atoms: _40  and  _41
REMARK   16  A    between atoms: _40  and  _43
REMARK   17  A    between atoms: _43  and  _44
REMARK   18  A    between atoms: _47  and  _49
REMARK   19  A    between atoms: _49  and  _50
REMARK   20  A    between atoms: _49  and  _52
REMARK   21  A    between atoms: _52  and  _53
REMARK   22  A    between atoms: _63  and  _65
REMARK   23  A    between atoms: _65  and  _66
REMARK   24  A    between atoms: _65  and  _68
REMARK   25  A    between atoms: _68  and  _69
REMARK   26  A    between atoms: _69  and  _70
REMARK   27  A    between atoms: _70  and  _71
REMARK   28  A    between atoms: _71  and  _72
REMARK   29  A    between atoms: _76  and  _78
REMARK   30  A    between atoms: _78  and  _79
REMARK   31  A    between atoms: _78  and  _81
REMARK   32  A    between atoms: _81  and  _82
REMARK   33  A    between atoms: _88  and  _90
REMARK   34  A    between atoms: _90  and  _91
REMARK   35  A    between atoms: _90  and  _93
REMARK   36  A    between atoms: _93  and  _94
REMARK   37  A    between atoms: _96  and  _98
REMARK   38  A    between atoms: _98  and  _99
REMARK   39  A    between atoms: _98  and  _101
REMARK   40  A    between atoms: _101  and  _102
REMARK   41  A    between atoms: _102  and  _103
REMARK   42  A    between atoms: _106  and  _108
REMARK   43  A    between atoms: _108  and  _109
REMARK   44  A    between atoms: _108  and  _111
REMARK   45  A    between atoms: _111  and  _112
REMARK   46  A    between atoms: _115  and  _117
REMARK   47  A    between atoms: _117  and  _118
REMARK   48  A    between atoms: _121  and  _123
REMARK   49  A    between atoms: _123  and  _124
REMARK   50  A    between atoms: _123  and  _126
REMARK   51  A    between atoms: _126  and  _127
REMARK   52  A    between atoms: _130  and  _132
REMARK   53  A    between atoms: _132  and  _133
REMARK   54  A    between atoms: _132  and  _135
REMARK   55  A    between atoms: _135  and  _136
REMARK   56  A    between atoms: _136  and  _137
REMARK   57  A    between atoms: _137  and  _138
REMARK   58  A    between atoms: _138  and  _139
REMARK   59  A    between atoms: _143  and  _145
REMARK   60  A    between atoms: _145  and  _146
REMARK   61  A    between atoms: _145  and  _148
REMARK   62  A    between atoms: _150  and  _152
REMARK   63  A    between atoms: _152  and  _153
REMARK   64  A    between atoms: _152  and  _155
REMARK   65  A    between atoms: _155  and  _156
REMARK   66  A    between atoms: _159  and  _161
REMARK   67  A    between atoms: _161  and  _162
REMARK   68  A    between atoms: _161  and  _164
REMARK   69  A    between atoms: _164  and  _165
REMARK   70  A    between atoms: _165  and  _166
REMARK   71  A    between atoms: _166  and  _167
REMARK   72  A    between atoms: _167  and  _168
REMARK   73  A    between atoms: _172  and  _174
REMARK   74  A    between atoms: _174  and  _175
REMARK   75  A    between atoms: _174  and  _177
REMARK   76  A    between atoms: _177  and  _178
REMARK   77  A    between atoms: _181  and  _183
REMARK   78  A    between atoms: _183  and  _184
REMARK   79  A    between atoms: _183  and  _186
REMARK   80  A    between atoms: _188  and  _190
REMARK   81  A    between atoms: _190  and  _191
REMARK   82  A    between atoms: _190  and  _193
REMARK   83  A    between atoms: _193  and  _194
REMARK   84  A    between atoms: _197  and  _199
REMARK   85  A    between atoms: _199  and  _200
REMARK   86  A    between atoms: _199  and  _202
REMARK   87  A    between atoms: _202  and  _203
REMARK   88  A    between atoms: _206  and  _208
REMARK   89  A    between atoms: _208  and  _209
REMARK   90  A    between atoms: _208  and  _211
REMARK   91  A    between atoms: _211  and  _212
REMARK   92  A    between atoms: _215  and  _217
REMARK   93  A    between atoms: _217  and  _218
REMARK   94  A    between atoms: _217  and  _220
REMARK   95  A    between atoms: _220  and  _221
REMARK   96  A    between atoms: _224  and  _226
REMARK   97  A    between atoms: _226  and  _227
REMARK   98  A    between atoms: _226  and  _229
REMARK   99  A    between atoms: _229  and  _230
REMARK  100  A    between atoms: _230  and  _231
REMARK  101  A    between atoms: _233  and  _235
REMARK  102  A    between atoms: _235  and  _236
REMARK  103  A    between atoms: _235  and  _238
REMARK  104  A    between atoms: _238  and  _239
REMARK  105  A    between atoms: _242  and  _244
REMARK  106  A    between atoms: _244  and  _245
REMARK  107  A    between atoms: _244  and  _247
REMARK  108  A    between atoms: _247  and  _248
REMARK  109  A    between atoms: _248  and  _249
REMARK  110  A    between atoms: _249  and  _250
REMARK  111  A    between atoms: _259  and  _261
REMARK  112  A    between atoms: _261  and  _262
REMARK  113  A    between atoms: _261  and  _264
REMARK  114  A    between atoms: _264  and  _265
REMARK  115  A    between atoms: _268  and  _270
REMARK  116  A    between atoms: _270  and  _271
REMARK  117  A    between atoms: _270  and  _273
REMARK  118  A    between atoms: _275  and  _277
REMARK  119  A    between atoms: _277  and  _278
REMARK  120  A    between atoms: _277  and  _280
REMARK  121  A    between atoms: _280  and  _281
REMARK  122  A    between atoms: _284  and  _286
REMARK  123  A    between atoms: _286  and  _287
REMARK  124  A    between atoms: _286  and  _289
REMARK  125  A    between atoms: _289  and  _290
REMARK  126  A    between atoms: _290  and  _291
REMARK  127  A    between atoms: _291  and  _292
REMARK  128  A    between atoms: _301  and  _303
REMARK  129  A    between atoms: _303  and  _304
REMARK  130  A    between atoms: _303  and  _306
REMARK  131  A    between atoms: _306  and  _307
REMARK  132  A    between atoms: _307  and  _308
REMARK  133  A    between atoms: _310  and  _312
REMARK  134  A    between atoms: _312  and  _313
REMARK  135  A    between atoms: _312  and  _315
REMARK  136  A    between atoms: _315  and  _316
REMARK  137  A    between atoms: _319  and  _321
REMARK  138  A    between atoms: _321  and  _322
REMARK  139  A    between atoms: _321  and  _324
REMARK  140  A    between atoms: _324  and  _325
REMARK  141  A    between atoms: _331  and  _333
REMARK  142  A    between atoms: _333  and  _334
REMARK  143  A    between atoms: _333  and  _336
REMARK  144  A    between atoms: _336  and  _337
REMARK  145  A    between atoms: _339  and  _341
REMARK  146  A    between atoms: _341  and  _342
REMARK  147  A    between atoms: _341  and  _344
REMARK  148  A    between atoms: _344  and  _345
REMARK  149  A    between atoms: _348  and  _350
REMARK  150  A    between atoms: _350  and  _351
REMARK  151  A    between atoms: _353  and  _355
REMARK  152  A    between atoms: _355  and  _356
REMARK  153  A    between atoms: _355  and  _358
REMARK  154  A    between atoms: _358  and  _359
REMARK  155  A    between atoms: _362  and  _364
REMARK  156  A    between atoms: _364  and  _365
REMARK  157  A    between atoms: _364  and  _367
REMARK  158  A    between atoms: _367  and  _368
REMARK  159  A    between atoms: _368  and  _369
REMARK  160  A    between atoms: _371  and  _373
REMARK  161  A    between atoms: _373  and  _374
REMARK  162  A    between atoms: _373  and  _376
REMARK  163  A    between atoms: _376  and  _377
REMARK  164  A    between atoms: _382  and  _384
REMARK  165  A    between atoms: _384  and  _385
REMARK  166  A    between atoms: _388  and  _390
REMARK  167  A    between atoms: _390  and  _391
REMARK  168  A    between atoms: _393  and  _395
REMARK  169  A    between atoms: _395  and  _396
REMARK  170  A    between atoms: _395  and  _398
REMARK  171  A    between atoms: _398  and  _399
REMARK  172  A    between atoms: _405  and  _407
REMARK  173  A    between atoms: _407  and  _408
REMARK  174  A    between atoms: _410  and  _412
REMARK  175  A    between atoms: _412  and  _413
REMARK  176  A    between atoms: _412  and  _415
REMARK  177  A    between atoms: _415  and  _416
REMARK  178  A    between atoms: _419  and  _421
REMARK  179  A    between atoms: _421  and  _422
REMARK  180  A    between atoms: _421  and  _424
REMARK  181  A    between atoms: _424  and  _425
REMARK  182  A    between atoms: _428  and  _430
REMARK  183  A    between atoms: _430  and  _431
REMARK  184  A    between atoms: _430  and  _433
REMARK  185  A    between atoms: _436  and  _438
REMARK  186  A    between atoms: _438  and  _439
REMARK  187  A    between atoms: _438  and  _441
REMARK  188  A    between atoms: _441  and  _442
REMARK  189  A    between atoms: _445  and  _447
REMARK  190  A    between atoms: _447  and  _448
REMARK  191  A    between atoms: _447  and  _450
REMARK  192  A    between atoms: _450  and  _451
REMARK  193  A    between atoms: _453  and  _455
REMARK  194  A    between atoms: _455  and  _456
REMARK  195  A    between atoms: _455  and  _458
REMARK  196  A    between atoms: _458  and  _459
REMARK  197  A    between atoms: _459  and  _460
REMARK  198  A    between atoms: _460  and  _461
REMARK  199  A    between atoms: _461  and  _462
REMARK  200  A    between atoms: _466  and  _468
REMARK  201  A    between atoms: _468  and  _469
REMARK  202  A    between atoms: _471  and  _473
REMARK  203  A    between atoms: _473  and  _474
REMARK  204  A    between atoms: _477  and  _479
REMARK  205  A    between atoms: _479  and  _480
REMARK  206  A    between atoms: _479  and  _482
REMARK  207  A    between atoms: _483  and  _484
REMARK  208  A    between atoms: _487  and  _489
REMARK  209  A    between atoms: _489  and  _490
REMARK  210  A    between atoms: _489  and  _492
REMARK  211  A    between atoms: _492  and  _493
REMARK  212  A    between atoms: _493  and  _494
REMARK  213  A    between atoms: _494  and  _495
REMARK  214  A    between atoms: _504  and  _506
REMARK  215  A    between atoms: _506  and  _507
REMARK  216  A    between atoms: _510  and  _512
REMARK  217  A    between atoms: _512  and  _513
REMARK  218  A    between atoms: _512  and  _515
REMARK  219  A    between atoms: _515  and  _516
REMARK  220  A    between atoms: _519  and  _521
REMARK  221  A    between atoms: _521  and  _522
REMARK  222  A    between atoms: _521  and  _524
REMARK  223  A    between atoms: _524  and  _525
REMARK  224  A    between atoms: _528  and  _530
REMARK  225  A    between atoms: _530  and  _531
REMARK  226  A    between atoms: _530  and  _533
REMARK  227  A    between atoms: _533  and  _534
REMARK  228  A    between atoms: _537  and  _539
REMARK  229  A    between atoms: _539  and  _540
REMARK  230  A    between atoms: _539  and  _542
REMARK  231  A    between atoms: _542  and  _543
REMARK  232  A    between atoms: _543  and  _544
REMARK  233  A    between atoms: _544  and  _545
REMARK  234  A    between atoms: _545  and  _546
REMARK  235  A    between atoms: _550  and  _552
REMARK  236  A    between atoms: _552  and  _553
REMARK  237  A    between atoms: _552  and  _555
REMARK  238  A    between atoms: _555  and  _556
REMARK  239  A    between atoms: _559  and  _561
REMARK  240  A    between atoms: _561  and  _562
REMARK  241  A    between atoms: _561  and  _564
REMARK  242  A    between atoms: _564  and  _565
REMARK  243  A    between atoms: _565  and  _566
REMARK  244  A    between atoms: _569  and  _570
REMARK  245  A    between atoms: _575  and  _577
REMARK  246  A    between atoms: _577  and  _578
REMARK  247  A    between atoms: _577  and  _580
REMARK  248  A    between atoms: _580  and  _581
REMARK  249  A    between atoms: _584  and  _586
REMARK  250  A    between atoms: _586  and  _587
REMARK  251  A    between atoms: _586  and  _589
REMARK  252  A    between atoms: _589  and  _590
REMARK  253  A    between atoms: _593  and  _595
REMARK  254  A    between atoms: _595  and  _596
REMARK  255  A    between atoms: _595  and  _598
REMARK  256  A    between atoms: _598  and  _599
REMARK  257  A    between atoms: _599  and  _600
REMARK  258  A    between atoms: _600  and  _601
REMARK  259  A    between atoms: _610  and  _612
REMARK  260  A    between atoms: _612  and  _613
REMARK  261  A    between atoms: _612  and  _615
REMARK  262  A    between atoms: _615  and  _616
REMARK  263  A    between atoms: _616  and  _617
REMARK  264  A    between atoms: _619  and  _621
REMARK  265  A    between atoms: _621  and  _622
REMARK  266  A    between atoms: _621  and  _624
REMARK  267  A    between atoms: _624  and  _625
REMARK                            x       y       z     vdW  Elec       q    Type
REMARK                         _______ _______ _______ _____ _____    ______ ____
ROOT
ATOM      1  O   HOH     1      45.394   7.143  75.190  0.00  0.00    +0.000 OA
ENDROOT
TORSDOF 0
REMARK  Name = ../refined-set-2016/1fd0/1fd0_pocket.pdb
REMARK  267 active torsions:
REMARK  status: ('A' for Active; 'I' for Inactive)
REMARK    1  A    between atoms: _1  and  _3
REMARK    2  A    between atoms: _3  and  _4
REMARK    3  A    between atoms: _3  and  _6
REMARK    4  A    between atoms: _6  and  _7
REMARK    5  A    between atoms: _10  and  _12
REMARK    6  A    between atoms: _12  and  _13
REMARK    7  A    between atoms: _12  and  _15
REMARK    8  A    between atoms: _15  and  _16
REMARK    9  A    between atoms: _23  and  _24
REMARK   10  A    between atoms: _29  and  _31
REMARK   11  A    between atoms: _31  and  _32
REMARK   12  A    between atoms: _31  and  _34
REMARK   13  A    between atoms: _34  and  _35
REMARK   14  A    between atoms: _38  and  _40
REMARK   15  A    between atoms: _40  and  _41
REMARK   16  A    between atoms: _40  and  _43
REMARK   17  A    between atoms: _43  and  _44
REMARK   18  A    between atoms: _47  and  _49
REMARK   19  A    between atoms: _49  and  _50
REMARK   20  A    between atoms: _49  and  _52
REMARK   21  A    between atoms: _52  and  _53
REMARK   22  A    between atoms: _63  and  _65
REMARK   23  A    between atoms: _65  and  _66
REMARK   24  A    between atoms: _65  and  _68
REMARK   25  A    between atoms: _68  and  _69
REMARK   26  A    between atoms: _69  and  _70
REMARK   27  A    between atoms: _70  and  _71
REMARK   28  A    between atoms: _71  and  _72
REMARK   29  A    between atoms: _76  and  _78
REMARK   30  A    between atoms: _78  and  _79
REMARK   31  A    between atoms: _78  and  _81
REMARK   32  A    between atoms: _81  and  _82
REMARK   33  A    between atoms: _88  and  _90
REMARK   34  A    between atoms: _90  and  _91
REMARK   35  A    between atoms: _90  and  _93
REMARK   36  A    between atoms: _93  and  _94
REMARK   37  A    between atoms: _96  and  _98
REMARK   38  A    between atoms: _98  and  _99
REMARK   39  A    between atoms: _98  and  _101
REMARK   40  A    between atoms: _101  and  _102
REMARK   41  A    between atoms: _102  and  _103
REMARK   42  A    between atoms: _106  and  _108
REMARK   43  A    between atoms: _108  and  _109
REMARK   44  A    between atoms: _108  and  _111
REMARK   45  A    between atoms: _111  and  _112
REMARK   46  A    between atoms: _115  and  _117
REMARK   47  A    between atoms: _117  and  _118
REMARK   48  A    between atoms: _121  and  _123
REMARK   49  A    between atoms: _123  and  _124
REMARK   50  A    between atoms: _123  and  _126
REMARK   51  A    between atoms: _126  and  _127
REMARK   52  A    between atoms: _130  and  _132
REMARK   53  A    between atoms: _132  and  _133
REMARK   54  A    between atoms: _132  and  _135
REMARK   55  A    between atoms: _135  and  _136
REMARK   56  A    between atoms: _136  and  _137
REMARK   57  A    between atoms: _137  and  _138
REMARK   58  A    between atoms: _138  and  _139
REMARK   59  A    between atoms: _143  and  _145
REMARK   60  A    between atoms: _145  and  _146
REMARK   61  A    between atoms: _145  and  _148
REMARK   62  A    between atoms: _150  and  _152
REMARK   63  A    between atoms: _152  and  _153
REMARK   64  A    between atoms: _152  and  _155
REMARK   65  A    between atoms: _155  and  _156
REMARK   66  A    between atoms: _159  and  _161
REMARK   67  A    between atoms: _161  and  _162
REMARK   68  A    between atoms: _161  and  _164
REMARK   69  A    between atoms: _164  and  _165
REMARK   70  A    between atoms: _165  and  _166
REMARK   71  A    between atoms: _166  and  _167
REMARK   72  A    between atoms: _167  and  _168
REMARK   73  A    between atoms: _172  and  _174
REMARK   74  A    between atoms: _174  and  _175
REMARK   75  A    between atoms: _174  and  _177
REMARK   76  A    between atoms: _177  and  _178
REMARK   77  A    between atoms: _181  and  _183
REMARK   78  A    between atoms: _183  and  _184
REMARK   79  A    between atoms: _183  and  _186
REMARK   80  A    between atoms: _188  and  _190
REMARK   81  A    between atoms: _190  and  _191
REMARK   82  A    between atoms: _190  and  _193
REMARK   83  A    between atoms: _193  and  _194
REMARK   84  A    between atoms: _197  and  _199
REMARK   85  A    between atoms: _199  and  _200
REMARK   86  A    between atoms: _199  and  _202
REMARK   87  A    between atoms: _202  and  _203
REMARK   88  A    between atoms: _206  and  _208
REMARK   89  A    between atoms: _208  and  _209
REMARK   90  A    between atoms: _208  and  _211
REMARK   91  A    between atoms: _211  and  _212
REMARK   92  A    between atoms: _215  and  _217
REMARK   93  A    between atoms: _217  and  _218
REMARK   94  A    between atoms: _217  and  _220
REMARK   95  A    between atoms: _220  and  _221
REMARK   96  A    between atoms: _224  and  _226
REMARK   97  A    between atoms: _226  and  _227
REMARK   98  A    between atoms: _226  and  _229
REMARK   99  A    between atoms: _229  and  _230
REMARK  100  A    between atoms: _230  and  _231
REMARK  101  A    between atoms: _233  and  _235
REMARK  102  A    between atoms: _235  and  _236
REMARK  103  A    between atoms: _235  and  _238
REMARK  104  A    between atoms: _238  and  _239
REMARK  105  A    between atoms: _242  and  _244
REMARK  106  A    between atoms: _244  and  _245
REMARK  107  A    between atoms: _244  and  _247
REMARK  108  A    between atoms: _247  and  _248
REMARK  109  A    between atoms: _248  and  _249
REMARK  110  A    between atoms: _249  and  _250
REMARK  111  A    between atoms: _259  and  _261
REMARK  112  A    between atoms: _261  and  _262
REMARK  113  A    between atoms: _261  and  _264
REMARK  114  A    between atoms: _264  and  _265
REMARK  115  A    between atoms: _268  and  _270
REMARK  116  A    between atoms: _270  and  _271
REMARK  117  A    between atoms: _270  and  _273
REMARK  118  A    between atoms: _275  and  _277
REMARK  119  A    between atoms: _277  and  _278
REMARK  120  A    between atoms: _277  and  _280
REMARK  121  A    between atoms: _280  and  _281
REMARK  122  A    between atoms: _284  and  _286
REMARK  123  A    between atoms: _286  and  _287
REMARK  124  A    between atoms: _286  and  _289
REMARK  125  A    between atoms: _289  and  _290
REMARK  126  A    between atoms: _290  and  _291
REMARK  127  A    between atoms: _291  and  _292
REMARK  128  A    between atoms: _301  and  _303
REMARK  129  A    between atoms: _303  and  _304
REMARK  130  A    between atoms: _303  and  _306
REMARK  131  A    between atoms: _306  and  _307
REMARK  132  A    between atoms: _307  and  _308
REMARK  133  A    between atoms: _310  and  _312
REMARK  134  A    between atoms: _312  and  _313
REMARK  135  A    between atoms: _312  and  _315
REMARK  136  A    between atoms: _315  and  _316
REMARK  137  A    between atoms: _319  and  _321
REMARK  138  A    between atoms: _321  and  _322
REMARK  139  A    between atoms: _321  and  _324
REMARK  140  A    between atoms: _324  and  _325
REMARK  141  A    between atoms: _331  and  _333
REMARK  142  A    between atoms: _333  and  _334
REMARK  143  A    between atoms: _333  and  _336
REMARK  144  A    between atoms: _336  and  _337
REMARK  145  A    between atoms: _339  and  _341
REMARK  146  A    between atoms: _341  and  _342
REMARK  147  A    between atoms: _341  and  _344
REMARK  148  A    between atoms: _344  and  _345
REMARK  149  A    between atoms: _348  and  _350
REMARK  150  A    between atoms: _350  and  _351
REMARK  151  A    between atoms: _353  and  _355
REMARK  152  A    between atoms: _355  and  _356
REMARK  153  A    between atoms: _355  and  _358
REMARK  154  A    between atoms: _358  and  _359
REMARK  155  A    between atoms: _362  and  _364
REMARK  156  A    between atoms: _364  and  _365
REMARK  157  A    between atoms: _364  and  _367
REMARK  158  A    between atoms: _367  and  _368
REMARK  159  A    between atoms: _368  and  _369
REMARK  160  A    between atoms: _371  and  _373
REMARK  161  A    between atoms: _373  and  _374
REMARK  162  A    between atoms: _373  and  _376
REMARK  163  A    between atoms: _376  and  _377
REMARK  164  A    between atoms: _382  and  _384
REMARK  165  A    between atoms: _384  and  _385
REMARK  166  A    between atoms: _388  and  _390
REMARK  167  A    between atoms: _390  and  _391
REMARK  168  A    between atoms: _393  and  _395
REMARK  169  A    between atoms: _395  and  _396
REMARK  170  A    between atoms: _395  and  _398
REMARK  171  A    between atoms: _398  and  _399
REMARK  172  A    between atoms: _405  and  _407
REMARK  173  A    between atoms: _407  and  _408
REMARK  174  A    between atoms: _410  and  _412
REMARK  175  A    between atoms: _412  and  _413
REMARK  176  A    between atoms: _412  and  _415
REMARK  177  A    between atoms: _415  and  _416
REMARK  178  A    between atoms: _419  and  _421
REMARK  179  A    between atoms: _421  and  _422
REMARK  180  A    between atoms: _421  and  _424
REMARK  181  A    between atoms: _424  and  _425
REMARK  182  A    between atoms: _428  and  _430
REMARK  183  A    between atoms: _430  and  _431
REMARK  184  A    between atoms: _430  and  _433
REMARK  185  A    between atoms: _436  and  _438
REMARK  186  A    between atoms: _438  and  _439
REMARK  187  A    between atoms: _438  and  _441
REMARK  188  A    between atoms: _441  and  _442
REMARK  189  A    between atoms: _445  and  _447
REMARK  190  A    between atoms: _447  and  _448
REMARK  191  A    between atoms: _447  and  _450
REMARK  192  A    between atoms: _450  and  _451
REMARK  193  A    between atoms: _453  and  _455
REMARK  194  A    between atoms: _455  and  _456
REMARK  195  A    between atoms: _455  and  _458
REMARK  196  A    between atoms: _458  and  _459
REMARK  197  A    between atoms: _459  and  _460
REMARK  198  A    between atoms: _460  and  _461
REMARK  199  A    between atoms: _461  and  _462
REMARK  200  A    between atoms: _466  and  _468
REMARK  201  A    between atoms: _468  and  _469
REMARK  202  A    between atoms: _471  and  _473
REMARK  203  A    between atoms: _473  and  _474
REMARK  204  A    between atoms: _477  and  _479
REMARK  205  A    between atoms: _479  and  _480
REMARK  206  A    between atoms: _479  and  _482
REMARK  207  A    between atoms: _483  and  _484
REMARK  208  A    between atoms: _487  and  _489
REMARK  209  A    between atoms: _489  and  _490
REMARK  210  A    between atoms: _489  and  _492
REMARK  211  A    between atoms: _492  and  _493
REMARK  212  A    between atoms: _493  and  _494
REMARK  213  A    between atoms: _494  and  _495
REMARK  214  A    between atoms: _504  and  _506
REMARK  215  A    between atoms: _506  and  _507
REMARK  216  A    between atoms: _510  and  _512
REMARK  217  A    between atoms: _512  and  _513
REMARK  218  A    between atoms: _512  and  _515
REMARK  219  A    between atoms: _515  and  _516
REMARK  220  A    between atoms: _519  and  _521
REMARK  221  A    between atoms: _521  and  _522
REMARK  222  A    between atoms: _521  and  _524
REMARK  223  A    between atoms: _524  and  _525
REMARK  224  A    between atoms: _528  and  _530
REMARK  225  A    between atoms: _530  and  _531
REMARK  226  A    between atoms: _530  and  _533
REMARK  227  A    between atoms: _533  and  _534
REMARK  228  A    between atoms: _537  and  _539
REMARK  229  A    between atoms: _539  and  _540
REMARK  230  A    between atoms: _539  and  _542
REMARK  231  A    between atoms: _542  and  _543
REMARK  232  A    between atoms: _543  and  _544
REMARK  233  A    between atoms: _544  and  _545
REMARK  234  A    between atoms: _545  and  _546
REMARK  235  A    between atoms: _550  and  _552
REMARK  236  A    between atoms: _552  and  _553
REMARK  237  A    between atoms: _552  and  _555
REMARK  238  A    between atoms: _555  and  _556
REMARK  239  A    between atoms: _559  and  _561
REMARK  240  A    between atoms: _561  and  _562
REMARK  241  A    between atoms: _561  and  _564
REMARK  242  A    between atoms: _564  and  _565
REMARK  243  A    between atoms: _565  and  _566
REMARK  244  A    between atoms: _569  and  _570
REMARK  245  A    between atoms: _575  and  _577
REMARK  246  A    between atoms: _577  and  _578
REMARK  247  A    between atoms: _577  and  _580
REMARK  248  A    between atoms: _580  and  _581
REMARK  249  A    between atoms: _584  and  _586
REMARK  250  A    between atoms: _586  and  _587
REMARK  251  A    between atoms: _586  and  _589
REMARK  252  A    between atoms: _589  and  _590
REMARK  253  A    between atoms: _593  and  _595
REMARK  254  A    between atoms: _595  and  _596
REMARK  255  A    between atoms: _595  and  _598
REMARK  256  A    between atoms: _598  and  _599
REMARK  257  A    between atoms: _599  and  _600
REMARK  258  A    between atoms: _600  and  _601
REMARK  259  A    between atoms: _610  and  _612
REMARK  260  A    between atoms: _612  and  _613
REMARK  261  A    between atoms: _612  and  _615
REMARK  262  A    between atoms: _615  and  _616
REMARK  263  A    between atoms: _616  and  _617
REMARK  264  A    between atoms: _619  and  _621
REMARK  265  A    between atoms: _621  and  _622
REMARK  266  A    between atoms: _621  and  _624
REMARK  267  A    between atoms: _624  and  _625
REMARK                            x       y       z     vdW  Elec       q    Type
REMARK                         _______ _______ _______ _____ _____    ______ ____
ROOT
ATOM      1  O   HOH     1      28.736  12.892  92.405  0.00  0.00    +0.000 OA
ENDROOT
TORSDOF 0
REMARK  Name = ../refined-set-2016/1fd0/1fd0_pocket.pdb
REMARK  267 active torsions:
REMARK  status: ('A' for Active; 'I' for Inactive)
REMARK    1  A    between atoms: _1  and  _3
REMARK    2  A    between atoms: _3  and  _4
REMARK    3  A    between atoms: _3  and  _6
REMARK    4  A    between atoms: _6  and  _7
REMARK    5  A    between atoms: _10  and  _12
REMARK    6  A    between atoms: _12  and  _13
REMARK    7  A    between atoms: _12  and  _15
REMARK    8  A    between atoms: _15  and  _16
REMARK    9  A    between atoms: _23  and  _24
REMARK   10  A    between atoms: _29  and  _31
REMARK   11  A    between atoms: _31  and  _32
REMARK   12  A    between atoms: _31  and  _34
REMARK   13  A    between atoms: _34  and  _35
REMARK   14  A    between atoms: _38  and  _40
REMARK   15  A    between atoms: _40  and  _41
REMARK   16  A    between atoms: _40  and  _43
REMARK   17  A    between atoms: _43  and  _44
REMARK   18  A    between atoms: _47  and  _49
REMARK   19  A    between atoms: _49  and  _50
REMARK   20  A    between atoms: _49  and  _52
REMARK   21  A    between atoms: _52  and  _53
REMARK   22  A    between atoms: _63  and  _65
REMARK   23  A    between atoms: _65  and  _66
REMARK   24  A    between atoms: _65  and  _68
REMARK   25  A    between atoms: _68  and  _69
REMARK   26  A    between atoms: _69  and  _70
REMARK   27  A    between atoms: _70  and  _71
REMARK   28  A    between atoms: _71  and  _72
REMARK   29  A    between atoms: _76  and  _78
REMARK   30  A    between atoms: _78  and  _79
REMARK   31  A    between atoms: _78  and  _81
REMARK   32  A    between atoms: _81  and  _82
REMARK   33  A    between atoms: _88  and  _90
REMARK   34  A    between atoms: _90  and  _91
REMARK   35  A    between atoms: _90  and  _93
REMARK   36  A    between atoms: _93  and  _94
REMARK   37  A    between atoms: _96  and  _98
REMARK   38  A    between atoms: _98  and  _99
REMARK   39  A    between atoms: _98  and  _101
REMARK   40  A    between atoms: _101  and  _102
REMARK   41  A    between atoms: _102  and  _103
REMARK   42  A    between atoms: _106  and  _108
REMARK   43  A    between atoms: _108  and  _109
REMARK   44  A    between atoms: _108  and  _111
REMARK   45  A    between atoms: _111  and  _112
REMARK   46  A    between atoms: _115  and  _117
REMARK   47  A    between atoms: _117  and  _118
REMARK   48  A    between atoms: _121  and  _123
REMARK   49  A    between atoms: _123  and  _124
REMARK   50  A    between atoms: _123  and  _126
REMARK   51  A    between atoms: _126  and  _127
REMARK   52  A    between atoms: _130  and  _132
REMARK   53  A    between atoms: _132  and  _133
REMARK   54  A    between atoms: _132  and  _135
REMARK   55  A    between atoms: _135  and  _136
REMARK   56  A    between atoms: _136  and  _137
REMARK   57  A    between atoms: _137  and  _138
REMARK   58  A    between atoms: _138  and  _139
REMARK   59  A    between atoms: _143  and  _145
REMARK   60  A    between atoms: _145  and  _146
REMARK   61  A    between atoms: _145  and  _148
REMARK   62  A    between atoms: _150  and  _152
REMARK   63  A    between atoms: _152  and  _153
REMARK   64  A    between atoms: _152  and  _155
REMARK   65  A    between atoms: _155  and  _156
REMARK   66  A    between atoms: _159  and  _161
REMARK   67  A    between atoms: _161  and  _162
REMARK   68  A    between atoms: _161  and  _164
REMARK   69  A    between atoms: _164  and  _165
REMARK   70  A    between atoms: _165  and  _166
REMARK   71  A    between atoms: _166  and  _167
REMARK   72  A    between atoms: _167  and  _168
REMARK   73  A    between atoms: _172  and  _174
REMARK   74  A    between atoms: _174  and  _175
REMARK   75  A    between atoms: _174  and  _177
REMARK   76  A    between atoms: _177  and  _178
REMARK   77  A    between atoms: _181  and  _183
REMARK   78  A    between atoms: _183  and  _184
REMARK   79  A    between atoms: _183  and  _186
REMARK   80  A    between atoms: _188  and  _190
REMARK   81  A    between atoms: _190  and  _191
REMARK   82  A    between atoms: _190  and  _193
REMARK   83  A    between atoms: _193  and  _194
REMARK   84  A    between atoms: _197  and  _199
REMARK   85  A    between atoms: _199  and  _200
REMARK   86  A    between atoms: _199  and  _202
REMARK   87  A    between atoms: _202  and  _203
REMARK   88  A    between atoms: _206  and  _208
REMARK   89  A    between atoms: _208  and  _209
REMARK   90  A    between atoms: _208  and  _211
REMARK   91  A    between atoms: _211  and  _212
REMARK   92  A    between atoms: _215  and  _217
REMARK   93  A    between atoms: _217  and  _218
REMARK   94  A    between atoms: _217  and  _220
REMARK   95  A    between atoms: _220  and  _221
REMARK   96  A    between atoms: _224  and  _226
REMARK   97  A    between atoms: _226  and  _227
REMARK   98  A    between atoms: _226  and  _229
REMARK   99  A    between atoms: _229  and  _230
REMARK  100  A    between atoms: _230  and  _231
REMARK  101  A    between atoms: _233  and  _235
REMARK  102  A    between atoms: _235  and  _236
REMARK  103  A    between atoms: _235  and  _238
REMARK  104  A    between atoms: _238  and  _239
REMARK  105  A    between atoms: _242  and  _244
REMARK  106  A    between atoms: _244  and  _245
REMARK  107  A    between atoms: _244  and  _247
REMARK  108  A    between atoms: _247  and  _248
REMARK  109  A    between atoms: _248  and  _249
REMARK  110  A    between atoms: _249  and  _250
REMARK  111  A    between atoms: _259  and  _261
REMARK  112  A    between atoms: _261  and  _262
REMARK  113  A    between atoms: _261  and  _264
REMARK  114  A    between atoms: _264  and  _265
REMARK  115  A    between atoms: _268  and  _270
REMARK  116  A    between atoms: _270  and  _271
REMARK  117  A    between atoms: _270  and  _273
REMARK  118  A    between atoms: _275  and  _277
REMARK  119  A    between atoms: _277  and  _278
REMARK  120  A    between atoms: _277  and  _280
REMARK  121  A    between atoms: _280  and  _281
REMARK  122  A    between atoms: _284  and  _286
REMARK  123  A    between atoms: _286  and  _287
REMARK  124  A    between atoms: _286  and  _289
REMARK  125  A    between atoms: _289  and  _290
REMARK  126  A    between atoms: _290  and  _291
REMARK  127  A    between atoms: _291  and  _292
REMARK  128  A    between atoms: _301  and  _303
REMARK  129  A    between atoms: _303  and  _304
REMARK  130  A    between atoms: _303  and  _306
REMARK  131  A    between atoms: _306  and  _307
REMARK  132  A    between atoms: _307  and  _308
REMARK  133  A    between atoms: _310  and  _312
REMARK  134  A    between atoms: _312  and  _313
REMARK  135  A    between atoms: _312  and  _315
REMARK  136  A    between atoms: _315  and  _316
REMARK  137  A    between atoms: _319  and  _321
REMARK  138  A    between atoms: _321  and  _322
REMARK  139  A    between atoms: _321  and  _324
REMARK  140  A    between atoms: _324  and  _325
REMARK  141  A    between atoms: _331  and  _333
REMARK  142  A    between atoms: _333  and  _334
REMARK  143  A    between atoms: _333  and  _336
REMARK  144  A    between atoms: _336  and  _337
REMARK  145  A    between atoms: _339  and  _341
REMARK  146  A    between atoms: _341  and  _342
REMARK  147  A    between atoms: _341  and  _344
REMARK  148  A    between atoms: _344  and  _345
REMARK  149  A    between atoms: _348  and  _350
REMARK  150  A    between atoms: _350  and  _351
REMARK  151  A    between atoms: _353  and  _355
REMARK  152  A    between atoms: _355  and  _356
REMARK  153  A    between atoms: _355  and  _358
REMARK  154  A    between atoms: _358  and  _359
REMARK  155  A    between atoms: _362  and  _364
REMARK  156  A    between atoms: _364  and  _365
REMARK  157  A    between atoms: _364  and  _367
REMARK  158  A    between atoms: _367  and  _368
REMARK  159  A    between atoms: _368  and  _369
REMARK  160  A    between atoms: _371  and  _373
REMARK  161  A    between atoms: _373  and  _374
REMARK  162  A    between atoms: _373  and  _376
REMARK  163  A    between atoms: _376  and  _377
REMARK  164  A    between atoms: _382  and  _384
REMARK  165  A    between atoms: _384  and  _385
REMARK  166  A    between atoms: _388  and  _390
REMARK  167  A    between atoms: _390  and  _391
REMARK  168  A    between atoms: _393  and  _395
REMARK  169  A    between atoms: _395  and  _396
REMARK  170  A    between atoms: _395  and  _398
REMARK  171  A    between atoms: _398  and  _399
REMARK  172  A    between atoms: _405  and  _407
REMARK  173  A    between atoms: _407  and  _408
REMARK  174  A    between atoms: _410  and  _412
REMARK  175  A    between atoms: _412  and  _413
REMARK  176  A    between atoms: _412  and  _415
REMARK  177  A    between atoms: _415  and  _416
REMARK  178  A    between atoms: _419  and  _421
REMARK  179  A    between atoms: _421  and  _422
REMARK  180  A    between atoms: _421  and  _424
REMARK  181  A    between atoms: _424  and  _425
REMARK  182  A    between atoms: _428  and  _430
REMARK  183  A    between atoms: _430  and  _431
REMARK  184  A    between atoms: _430  and  _433
REMARK  185  A    between atoms: _436  and  _438
REMARK  186  A    between atoms: _438  and  _439
REMARK  187  A    between atoms: _438  and  _441
REMARK  188  A    between atoms: _441  and  _442
REMARK  189  A    between atoms: _445  and  _447
REMARK  190  A    between atoms: _447  and  _448
REMARK  191  A    between atoms: _447  and  _450
REMARK  192  A    between atoms: _450  and  _451
REMARK  193  A    between atoms: _453  and  _455
REMARK  194  A    between atoms: _455  and  _456
REMARK  195  A    between atoms: _455  and  _458
REMARK  196  A    between atoms: _458  and  _459
REMARK  197  A    between atoms: _459  and  _460
REMARK  198  A    between atoms: _460  and  _461
REMARK  199  A    between atoms: _461  and  _462
REMARK  200  A    between atoms: _466  and  _468
REMARK  201  A    between atoms: _468  and  _469
REMARK  202  A    between atoms: _471  and  _473
REMARK  203  A    between atoms: _473  and  _474
REMARK  204  A    between atoms: _477  and  _479
REMARK  205  A    between atoms: _479  and  _480
REMARK  206  A    between atoms: _479  and  _482
REMARK  207  A    between atoms: _483  and  _484
REMARK  208  A    between atoms: _487  and  _489
REMARK  209  A    between atoms: _489  and  _490
REMARK  210  A    between atoms: _489  and  _492
REMARK  211  A    between atoms: _492  and  _493
REMARK  212  A    between atoms: _493  and  _494
REMARK  213  A    between atoms: _494  and  _495
REMARK  214  A    between atoms: _504  and  _506
REMARK  215  A    between atoms: _506  and  _507
REMARK  216  A    between atoms: _510  and  _512
REMARK  217  A    between atoms: _512  and  _513
REMARK  218  A    between atoms: _512  and  _515
REMARK  219  A    between atoms: _515  and  _516
REMARK  220  A    between atoms: _519  and  _521
REMARK  221  A    between atoms: _521  and  _522
REMARK  222  A    between atoms: _521  and  _524
REMARK  223  A    between atoms: _524  and  _525
REMARK  224  A    between atoms: _528  and  _530
REMARK  225  A    between atoms: _530  and  _531
REMARK  226  A    between atoms: _530  and  _533
REMARK  227  A    between atoms: _533  and  _534
REMARK  228  A    between atoms: _537  and  _539
REMARK  229  A    between atoms: _539  and  _540
REMARK  230  A    between atoms: _539  and  _542
REMARK  231  A    between atoms: _542  and  _543
REMARK  232  A    between atoms: _543  and  _544
REMARK  233  A    between atoms: _544  and  _545
REMARK  234  A    between atoms: _545  and  _546
REMARK  235  A    between atoms: _550  and  _552
REMARK  236  A    between atoms: _552  and  _553
REMARK  237  A    between atoms: _552  and  _555
REMARK  238  A    between atoms: _555  and  _556
REMARK  239  A    between atoms: _559  and  _561
REMARK  240  A    between atoms: _561  and  _562
REMARK  241  A    between atoms: _561  and  _564
REMARK  242  A    between atoms: _564  and  _565
REMARK  243  A    between atoms: _565  and  _566
REMARK  244  A    between atoms: _569  and  _570
REMARK  245  A    between atoms: _575  and  _577
REMARK  246  A    between atoms: _577  and  _578
REMARK  247  A    between atoms: _577  and  _580
REMARK  248  A    between atoms: _580  and  _581
REMARK  249  A    between atoms: _584  and  _586
REMARK  250  A    between atoms: _586  and  _587
REMARK  251  A    between atoms: _586  and  _589
REMARK  252  A    between atoms: _589  and  _590
REMARK  253  A    between atoms: _593  and  _595
REMARK  254  A    between atoms: _595  and  _596
REMARK  255  A    between atoms: _595  and  _598
REMARK  256  A    between atoms: _598  and  _599
REMARK  257  A    between atoms: _599  and  _600
REMARK  258  A    between atoms: _600  and  _601
REMARK  259  A    between atoms: _610  and  _612
REMARK  260  A    between atoms: _612  and  _613
REMARK  261  A    between atoms: _612  and  _615
REMARK  262  A    between atoms: _615  and  _616
REMARK  263  A    between atoms: _616  and  _617
REMARK  264  A    between atoms: _619  and  _621
REMARK  265  A    between atoms: _621  and  _622
REMARK  266  A    between atoms: _621  and  _624
REMARK  267  A    between atoms: _624  and  _625
REMARK                            x       y       z     vdW  Elec       q    Type
REMARK                         _______ _______ _______ _____ _____    ______ ____
ROOT
ATOM      1  O   HOH     1      53.128  17.837  81.894  0.00  0.00    +0.000 OA
ENDROOT
TORSDOF 0
REMARK  Name = ../refined-set-2016/1fd0/1fd0_pocket.pdb
REMARK  267 active torsions:
REMARK  status: ('A' for Active; 'I' for Inactive)
REMARK    1  A    between atoms: _1  and  _3
REMARK    2  A    between atoms: _3  and  _4
REMARK    3  A    between atoms: _3  and  _6
REMARK    4  A    between atoms: _6  and  _7
REMARK    5  A    between atoms: _10  and  _12
REMARK    6  A    between atoms: _12  and  _13
REMARK    7  A    between atoms: _12  and  _15
REMARK    8  A    between atoms: _15  and  _16
REMARK    9  A    between atoms: _23  and  _24
REMARK   10  A    between atoms: _29  and  _31
REMARK   11  A    between atoms: _31  and  _32
REMARK   12  A    between atoms: _31  and  _34
REMARK   13  A    between atoms: _34  and  _35
REMARK   14  A    between atoms: _38  and  _40
REMARK   15  A    between atoms: _40  and  _41
REMARK   16  A    between atoms: _40  and  _43
REMARK   17  A    between atoms: _43  and  _44
REMARK   18  A    between atoms: _47  and  _49
REMARK   19  A    between atoms: _49  and  _50
REMARK   20  A    between atoms: _49  and  _52
REMARK   21  A    between atoms: _52  and  _53
REMARK   22  A    between atoms: _63  and  _65
REMARK   23  A    between atoms: _65  and  _66
REMARK   24  A    between atoms: _65  and  _68
REMARK   25  A    between atoms: _68  and  _69
REMARK   26  A    between atoms: _69  and  _70
REMARK   27  A    between atoms: _70  and  _71
REMARK   28  A    between atoms: _71  and  _72
REMARK   29  A    between atoms: _76  and  _78
REMARK   30  A    between atoms: _78  and  _79
REMARK   31  A    between atoms: _78  and  _81
REMARK   32  A    between atoms: _81  and  _82
REMARK   33  A    between atoms: _88  and  _90
REMARK   34  A    between atoms: _90  and  _91
REMARK   35  A    between atoms: _90  and  _93
REMARK   36  A    between atoms: _93  and  _94
REMARK   37  A    between atoms: _96  and  _98
REMARK   38  A    between atoms: _98  and  _99
REMARK   39  A    between atoms: _98  and  _101
REMARK   40  A    between atoms: _101  and  _102
REMARK   41  A    between atoms: _102  and  _103
REMARK   42  A    between atoms: _106  and  _108
REMARK   43  A    between atoms: _108  and  _109
REMARK   44  A    between atoms: _108  and  _111
REMARK   45  A    between atoms: _111  and  _112
REMARK   46  A    between atoms: _115  and  _117
REMARK   47  A    between atoms: _117  and  _118
REMARK   48  A    between atoms: _121  and  _123
REMARK   49  A    between atoms: _123  and  _124
REMARK   50  A    between atoms: _123  and  _126
REMARK   51  A    between atoms: _126  and  _127
REMARK   52  A    between atoms: _130  and  _132
REMARK   53  A    between atoms: _132  and  _133
REMARK   54  A    between atoms: _132  and  _135
REMARK   55  A    between atoms: _135  and  _136
REMARK   56  A    between atoms: _136  and  _137
REMARK   57  A    between atoms: _137  and  _138
REMARK   58  A    between atoms: _138  and  _139
REMARK   59  A    between atoms: _143  and  _145
REMARK   60  A    between atoms: _145  and  _146
REMARK   61  A    between atoms: _145  and  _148
REMARK   62  A    between atoms: _150  and  _152
REMARK   63  A    between atoms: _152  and  _153
REMARK   64  A    between atoms: _152  and  _155
REMARK   65  A    between atoms: _155  and  _156
REMARK   66  A    between atoms: _159  and  _161
REMARK   67  A    between atoms: _161  and  _162
REMARK   68  A    between atoms: _161  and  _164
REMARK   69  A    between atoms: _164  and  _165
REMARK   70  A    between atoms: _165  and  _166
REMARK   71  A    between atoms: _166  and  _167
REMARK   72  A    between atoms: _167  and  _168
REMARK   73  A    between atoms: _172  and  _174
REMARK   74  A    between atoms: _174  and  _175
REMARK   75  A    between atoms: _174  and  _177
REMARK   76  A    between atoms: _177  and  _178
REMARK   77  A    between atoms: _181  and  _183
REMARK   78  A    between atoms: _183  and  _184
REMARK   79  A    between atoms: _183  and  _186
REMARK   80  A    between atoms: _188  and  _190
REMARK   81  A    between atoms: _190  and  _191
REMARK   82  A    between atoms: _190  and  _193
REMARK   83  A    between atoms: _193  and  _194
REMARK   84  A    between atoms: _197  and  _199
REMARK   85  A    between atoms: _199  and  _200
REMARK   86  A    between atoms: _199  and  _202
REMARK   87  A    between atoms: _202  and  _203
REMARK   88  A    between atoms: _206  and  _208
REMARK   89  A    between atoms: _208  and  _209
REMARK   90  A    between atoms: _208  and  _211
REMARK   91  A    between atoms: _211  and  _212
REMARK   92  A    between atoms: _215  and  _217
REMARK   93  A    between atoms: _217  and  _218
REMARK   94  A    between atoms: _217  and  _220
REMARK   95  A    between atoms: _220  and  _221
REMARK   96  A    between atoms: _224  and  _226
REMARK   97  A    between atoms: _226  and  _227
REMARK   98  A    between atoms: _226  and  _229
REMARK   99  A    between atoms: _229  and  _230
REMARK  100  A    between atoms: _230  and  _231
REMARK  101  A    between atoms: _233  and  _235
REMARK  102  A    between atoms: _235  and  _236
REMARK  103  A    between atoms: _235  and  _238
REMARK  104  A    between atoms: _238  and  _239
REMARK  105  A    between atoms: _242  and  _244
REMARK  106  A    between atoms: _244  and  _245
REMARK  107  A    between atoms: _244  and  _247
REMARK  108  A    between atoms: _247  and  _248
REMARK  109  A    between atoms: _248  and  _249
REMARK  110  A    between atoms: _249  and  _250
REMARK  111  A    between atoms: _259  and  _261
REMARK  112  A    between atoms: _261  and  _262
REMARK  113  A    between atoms: _261  and  _264
REMARK  114  A    between atoms: _264  and  _265
REMARK  115  A    between atoms: _268  and  _270
REMARK  116  A    between atoms: _270  and  _271
REMARK  117  A    between atoms: _270  and  _273
REMARK  118  A    between atoms: _275  and  _277
REMARK  119  A    between atoms: _277  and  _278
REMARK  120  A    between atoms: _277  and  _280
REMARK  121  A    between atoms: _280  and  _281
REMARK  122  A    between atoms: _284  and  _286
REMARK  123  A    between atoms: _286  and  _287
REMARK  124  A    between atoms: _286  and  _289
REMARK  125  A    between atoms: _289  and  _290
REMARK  126  A    between atoms: _290  and  _291
REMARK  127  A    between atoms: _291  and  _292
REMARK  128  A    between atoms: _301  and  _303
REMARK  129  A    between atoms: _303  and  _304
REMARK  130  A    between atoms: _303  and  _306
REMARK  131  A    between atoms: _306  and  _307
REMARK  132  A    between atoms: _307  and  _308
REMARK  133  A    between atoms: _310  and  _312
REMARK  134  A    between atoms: _312  and  _313
REMARK  135  A    between atoms: _312  and  _315
REMARK  136  A    between atoms: _315  and  _316
REMARK  137  A    between atoms: _319  and  _321
REMARK  138  A    between atoms: _321  and  _322
REMARK  139  A    between atoms: _321  and  _324
REMARK  140  A    between atoms: _324  and  _325
REMARK  141  A    between atoms: _331  and  _333
REMARK  142  A    between atoms: _333  and  _334
REMARK  143  A    between atoms: _333  and  _336
REMARK  144  A    between atoms: _336  and  _337
REMARK  145  A    between atoms: _339  and  _341
REMARK  146  A    between atoms: _341  and  _342
REMARK  147  A    between atoms: _341  and  _344
REMARK  148  A    between atoms: _344  and  _345
REMARK  149  A    between atoms: _348  and  _350
REMARK  150  A    between atoms: _350  and  _351
REMARK  151  A    between atoms: _353  and  _355
REMARK  152  A    between atoms: _355  and  _356
REMARK  153  A    between atoms: _355  and  _358
REMARK  154  A    between atoms: _358  and  _359
REMARK  155  A    between atoms: _362  and  _364
REMARK  156  A    between atoms: _364  and  _365
REMARK  157  A    between atoms: _364  and  _367
REMARK  158  A    between atoms: _367  and  _368
REMARK  159  A    between atoms: _368  and  _369
REMARK  160  A    between atoms: _371  and  _373
REMARK  161  A    between atoms: _373  and  _374
REMARK  162  A    between atoms: _373  and  _376
REMARK  163  A    between atoms: _376  and  _377
REMARK  164  A    between atoms: _382  and  _384
REMARK  165  A    between atoms: _384  and  _385
REMARK  166  A    between atoms: _388  and  _390
REMARK  167  A    between atoms: _390  and  _391
REMARK  168  A    between atoms: _393  and  _395
REMARK  169  A    between atoms: _395  and  _396
REMARK  170  A    between atoms: _395  and  _398
REMARK  171  A    between atoms: _398  and  _399
REMARK  172  A    between atoms: _405  and  _407
REMARK  173  A    between atoms: _407  and  _408
REMARK  174  A    between atoms: _410  and  _412
REMARK  175  A    between atoms: _412  and  _413
REMARK  176  A    between atoms: _412  and  _415
REMARK  177  A    between atoms: _415  and  _416
REMARK  178  A    between atoms: _419  and  _421
REMARK  179  A    between atoms: _421  and  _422
REMARK  180  A    between atoms: _421  and  _424
REMARK  181  A    between atoms: _424  and  _425
REMARK  182  A    between atoms: _428  and  _430
REMARK  183  A    between atoms: _430  and  _431
REMARK  184  A    between atoms: _430  and  _433
REMARK  185  A    between atoms: _436  and  _438
REMARK  186  A    between atoms: _438  and  _439
REMARK  187  A    between atoms: _438  and  _441
REMARK  188  A    between atoms: _441  and  _442
REMARK  189  A    between atoms: _445  and  _447
REMARK  190  A    between atoms: _447  and  _448
REMARK  191  A    between atoms: _447  and  _450
REMARK  192  A    between atoms: _450  and  _451
REMARK  193  A    between atoms: _453  and  _455
REMARK  194  A    between atoms: _455  and  _456
REMARK  195  A    between atoms: _455  and  _458
REMARK  196  A    between atoms: _458  and  _459
REMARK  197  A    between atoms: _459  and  _460
REMARK  198  A    between atoms: _460  and  _461
REMARK  199  A    between atoms: _461  and  _462
REMARK  200  A    between atoms: _466  and  _468
REMARK  201  A    between atoms: _468  and  _469
REMARK  202  A    between atoms: _471  and  _473
REMARK  203  A    between atoms: _473  and  _474
REMARK  204  A    between atoms: _477  and  _479
REMARK  205  A    between atoms: _479  and  _480
REMARK  206  A    between atoms: _479  and  _482
REMARK  207  A    between atoms: _483  and  _484
REMARK  208  A    between atoms: _487  and  _489
REMARK  209  A    between atoms: _489  and  _490
REMARK  210  A    between atoms: _489  and  _492
REMARK  211  A    between atoms: _492  and  _493
REMARK  212  A    between atoms: _493  and  _494
REMARK  213  A    between atoms: _494  and  _495
REMARK  214  A    between atoms: _504  and  _506
REMARK  215  A    between atoms: _506  and  _507
REMARK  216  A    between atoms: _510  and  _512
REMARK  217  A    between atoms: _512  and  _513
REMARK  218  A    between atoms: _512  and  _515
REMARK  219  A    between atoms: _515  and  _516
REMARK  220  A    between atoms: _519  and  _521
REMARK  221  A    between atoms: _521  and  _522
REMARK  222  A    between atoms: _521  and  _524
REMARK  223  A    between atoms: _524  and  _525
REMARK  224  A    between atoms: _528  and  _530
REMARK  225  A    between atoms: _530  and  _531
REMARK  226  A    between atoms: _530  and  _533
REMARK  227  A    between atoms: _533  and  _534
REMARK  228  A    between atoms: _537  and  _539
REMARK  229  A    between atoms: _539  and  _540
REMARK  230  A    between atoms: _539  and  _542
REMARK  231  A    between atoms: _542  and  _543
REMARK  232  A    between atoms: _543  and  _544
REMARK  233  A    between atoms: _544  and  _545
REMARK  234  A    between atoms: _545  and  _546
REMARK  235  A    between atoms: _550  and  _552
REMARK  236  A    between atoms: _552  and  _553
REMARK  237  A    between atoms: _552  and  _555
REMARK  238  A    between atoms: _555  and  _556
REMARK  239  A    between atoms: _559  and  _561
REMARK  240  A    between atoms: _561  and  _562
REMARK  241  A    between atoms: _561  and  _564
REMARK  242  A    between atoms: _564  and  _565
REMARK  243  A    between atoms: _565  and  _566
REMARK  244  A    between atoms: _569  and  _570
REMARK  245  A    between atoms: _575  and  _577
REMARK  246  A    between atoms: _577  and  _578
REMARK  247  A    between atoms: _577  and  _580
REMARK  248  A    between atoms: _580  and  _581
REMARK  249  A    between atoms: _584  and  _586
REMARK  250  A    between atoms: _586  and  _587
REMARK  251  A    between atoms: _586  and  _589
REMARK  252  A    between atoms: _589  and  _590
REMARK  253  A    between atoms: _593  and  _595
REMARK  254  A    between atoms: _595  and  _596
REMARK  255  A    between atoms: _595  and  _598
REMARK  256  A    between atoms: _598  and  _599
REMARK  257  A    between atoms: _599  and  _600
REMARK  258  A    between atoms: _600  and  _601
REMARK  259  A    between atoms: _610  and  _612
REMARK  260  A    between atoms: _612  and  _613
REMARK  261  A    between atoms: _612  and  _615
REMARK  262  A    between atoms: _615  and  _616
REMARK  263  A    between atoms: _616  and  _617
REMARK  264  A    between atoms: _619  and  _621
REMARK  265  A    between atoms: _621  and  _622
REMARK  266  A    between atoms: _621  and  _624
REMARK  267  A    between atoms: _624  and  _625
REMARK                            x       y       z     vdW  Elec       q    Type
REMARK                         _______ _______ _______ _____ _____    ______ ____
ROOT
ATOM      1  O   HOH     1      50.859  10.754  86.734  0.00  0.00    +0.000 OA
ENDROOT
TORSDOF 0
