REMARK  Name = ../refined-set-2016/3wjw/3wjw_pocket.pdb
REMARK  215 active torsions:
REMARK  status: ('A' for Active; 'I' for Inactive)
REMARK    1  A    between atoms: _1  and  _3
REMARK    2  A    between atoms: _3  and  _4
REMARK    3  A    between atoms: _3  and  _6
REMARK    4  A    between atoms: _6  and  _7
REMARK    5  A    between atoms: _10  and  _12
REMARK    6  A    between atoms: _12  and  _13
REMARK    7  A    between atoms: _12  and  _15
REMARK    8  A    between atoms: _15  and  _16
REMARK    9  A    between atoms: _19  and  _21
REMARK   10  A    between atoms: _21  and  _22
REMARK   11  A    between atoms: _25  and  _27
REMARK   12  A    between atoms: _27  and  _28
REMARK   13  A    between atoms: _27  and  _30
REMARK   14  A    between atoms: _30  and  _31
REMARK   15  A    between atoms: _31  and  _32
REMARK   16  A    between atoms: _34  and  _36
REMARK   17  A    between atoms: _36  and  _37
REMARK   18  A    between atoms: _36  and  _39
REMARK   19  A    between atoms: _39  and  _40
REMARK   20  A    between atoms: _43  and  _45
REMARK   21  A    between atoms: _45  and  _46
REMARK   22  A    between atoms: _45  and  _48
REMARK   23  A    between atoms: _48  and  _49
REMARK   24  A    between atoms: _49  and  _50
REMARK   25  A    between atoms: _50  and  _51
REMARK   26  A    between atoms: _51  and  _52
REMARK   27  A    between atoms: _56  and  _58
REMARK   28  A    between atoms: _58  and  _59
REMARK   29  A    between atoms: _58  and  _61
REMARK   30  A    between atoms: _61  and  _62
REMARK   31  A    between atoms: _65  and  _67
REMARK   32  A    between atoms: _67  and  _68
REMARK   33  A    between atoms: _70  and  _72
REMARK   34  A    between atoms: _72  and  _73
REMARK   35  A    between atoms: _72  and  _75
REMARK   36  A    between atoms: _75  and  _76
REMARK   37  A    between atoms: _81  and  _82
REMARK   38  A    between atoms: _85  and  _86
REMARK   39  A    between atoms: _91  and  _93
REMARK   40  A    between atoms: _93  and  _94
REMARK   41  A    between atoms: _93  and  _96
REMARK   42  A    between atoms: _96  and  _97
REMARK   43  A    between atoms: _100  and  _102
REMARK   44  A    between atoms: _102  and  _103
REMARK   45  A    between atoms: _102  and  _105
REMARK   46  A    between atoms: _105  and  _106
REMARK   47  A    between atoms: _109  and  _111
REMARK   48  A    between atoms: _111  and  _112
REMARK   49  A    between atoms: _111  and  _114
REMARK   50  A    between atoms: _114  and  _115
REMARK   51  A    between atoms: _118  and  _120
REMARK   52  A    between atoms: _120  and  _121
REMARK   53  A    between atoms: _120  and  _123
REMARK   54  A    between atoms: _123  and  _124
REMARK   55  A    between atoms: _130  and  _132
REMARK   56  A    between atoms: _132  and  _133
REMARK   57  A    between atoms: _132  and  _135
REMARK   58  A    between atoms: _135  and  _136
REMARK   59  A    between atoms: _136  and  _137
REMARK   60  A    between atoms: _137  and  _138
REMARK   61  A    between atoms: _138  and  _139
REMARK   62  A    between atoms: _143  and  _145
REMARK   63  A    between atoms: _145  and  _146
REMARK   64  A    between atoms: _145  and  _148
REMARK   65  A    between atoms: _148  and  _149
REMARK   66  A    between atoms: _152  and  _154
REMARK   67  A    between atoms: _154  and  _155
REMARK   68  A    between atoms: _154  and  _157
REMARK   69  A    between atoms: _157  and  _158
REMARK   70  A    between atoms: _163  and  _165
REMARK   71  A    between atoms: _165  and  _166
REMARK   72  A    between atoms: _165  and  _168
REMARK   73  A    between atoms: _168  and  _169
REMARK   74  A    between atoms: _172  and  _174
REMARK   75  A    between atoms: _174  and  _175
REMARK   76  A    between atoms: _174  and  _177
REMARK   77  A    between atoms: _177  and  _178
REMARK   78  A    between atoms: _181  and  _183
REMARK   79  A    between atoms: _183  and  _184
REMARK   80  A    between atoms: _183  and  _186
REMARK   81  A    between atoms: _186  and  _187
REMARK   82  A    between atoms: _187  and  _188
REMARK   83  A    between atoms: _191  and  _193
REMARK   84  A    between atoms: _193  and  _194
REMARK   85  A    between atoms: _193  and  _196
REMARK   86  A    between atoms: _196  and  _197
REMARK   87  A    between atoms: _197  and  _198
REMARK   88  A    between atoms: _200  and  _202
REMARK   89  A    between atoms: _202  and  _203
REMARK   90  A    between atoms: _202  and  _205
REMARK   91  A    between atoms: _205  and  _206
REMARK   92  A    between atoms: _208  and  _210
REMARK   93  A    between atoms: _210  and  _211
REMARK   94  A    between atoms: _210  and  _213
REMARK   95  A    between atoms: _213  and  _214
REMARK   96  A    between atoms: _219  and  _221
REMARK   97  A    between atoms: _221  and  _222
REMARK   98  A    between atoms: _225  and  _227
REMARK   99  A    between atoms: _227  and  _228
REMARK  100  A    between atoms: _227  and  _230
REMARK  101  A    between atoms: _230  and  _231
REMARK  102  A    between atoms: _234  and  _236
REMARK  103  A    between atoms: _236  and  _237
REMARK  104  A    between atoms: _236  and  _239
REMARK  105  A    between atoms: _242  and  _244
REMARK  106  A    between atoms: _244  and  _245
REMARK  107  A    between atoms: _248  and  _249
REMARK  108  A    between atoms: _254  and  _256
REMARK  109  A    between atoms: _256  and  _257
REMARK  110  A    between atoms: _256  and  _259
REMARK  111  A    between atoms: _259  and  _260
REMARK  112  A    between atoms: _262  and  _264
REMARK  113  A    between atoms: _264  and  _265
REMARK  114  A    between atoms: _264  and  _267
REMARK  115  A    between atoms: _267  and  _268
REMARK  116  A    between atoms: _271  and  _273
REMARK  117  A    between atoms: _273  and  _274
REMARK  118  A    between atoms: _273  and  _276
REMARK  119  A    between atoms: _276  and  _277
REMARK  120  A    between atoms: _277  and  _278
REMARK  121  A    between atoms: _278  and  _279
REMARK  122  A    between atoms: _288  and  _290
REMARK  123  A    between atoms: _290  and  _291
REMARK  124  A    between atoms: _290  and  _293
REMARK  125  A    between atoms: _293  and  _294
REMARK  126  A    between atoms: _297  and  _299
REMARK  127  A    between atoms: _299  and  _300
REMARK  128  A    between atoms: _299  and  _302
REMARK  129  A    between atoms: _302  and  _303
REMARK  130  A    between atoms: _306  and  _307
REMARK  131  A    between atoms: _312  and  _314
REMARK  132  A    between atoms: _314  and  _315
REMARK  133  A    between atoms: _317  and  _319
REMARK  134  A    between atoms: _319  and  _320
REMARK  135  A    between atoms: _319  and  _322
REMARK  136  A    between atoms: _325  and  _327
REMARK  137  A    between atoms: _327  and  _328
REMARK  138  A    between atoms: _330  and  _332
REMARK  139  A    between atoms: _332  and  _333
REMARK  140  A    between atoms: _336  and  _338
REMARK  141  A    between atoms: _338  and  _339
REMARK  142  A    between atoms: _338  and  _341
REMARK  143  A    between atoms: _341  and  _342
REMARK  144  A    between atoms: _342  and  _343
REMARK  145  A    between atoms: _348  and  _350
REMARK  146  A    between atoms: _350  and  _351
REMARK  147  A    between atoms: _353  and  _355
REMARK  148  A    between atoms: _355  and  _356
REMARK  149  A    between atoms: _358  and  _360
REMARK  150  A    between atoms: _360  and  _361
REMARK  151  A    between atoms: _360  and  _363
REMARK  152  A    between atoms: _363  and  _364
REMARK  153  A    between atoms: _367  and  _369
REMARK  154  A    between atoms: _369  and  _370
REMARK  155  A    between atoms: _369  and  _372
REMARK  156  A    between atoms: _375  and  _377
REMARK  157  A    between atoms: _377  and  _378
REMARK  158  A    between atoms: _380  and  _382
REMARK  159  A    between atoms: _382  and  _383
REMARK  160  A    between atoms: _382  and  _385
REMARK  161  A    between atoms: _385  and  _386
REMARK  162  A    between atoms: _386  and  _387
REMARK  163  A    between atoms: _387  and  _388
REMARK  164  A    between atoms: _397  and  _399
REMARK  165  A    between atoms: _399  and  _400
REMARK  166  A    between atoms: _399  and  _402
REMARK  167  A    between atoms: _402  and  _403
REMARK  168  A    between atoms: _405  and  _407
REMARK  169  A    between atoms: _407  and  _408
REMARK  170  A    between atoms: _407  and  _410
REMARK  171  A    between atoms: _410  and  _411
REMARK  172  A    between atoms: _414  and  _416
REMARK  173  A    between atoms: _416  and  _417
REMARK  174  A    between atoms: _416  and  _419
REMARK  175  A    between atoms: _419  and  _420
REMARK  176  A    between atoms: _425  and  _426
REMARK  177  A    between atoms: _428  and  _430
REMARK  178  A    between atoms: _430  and  _431
REMARK  179  A    between atoms: _430  and  _433
REMARK  180  A    between atoms: _433  and  _434
REMARK  181  A    between atoms: _437  and  _439
REMARK  182  A    between atoms: _439  and  _440
REMARK  183  A    between atoms: _443  and  _445
REMARK  184  A    between atoms: _445  and  _446
REMARK  185  A    between atoms: _445  and  _448
REMARK  186  A    between atoms: _448  and  _449
REMARK  187  A    between atoms: _452  and  _454
REMARK  188  A    between atoms: _454  and  _455
REMARK  189  A    between atoms: _454  and  _457
REMARK  190  A    between atoms: _457  and  _458
REMARK  191  A    between atoms: _462  and  _463
REMARK  192  A    between atoms: _468  and  _470
REMARK  193  A    between atoms: _470  and  _471
REMARK  194  A    between atoms: _470  and  _473
REMARK  195  A    between atoms: _473  and  _474
REMARK  196  A    between atoms: _474  and  _475
REMARK  197  A    between atoms: _478  and  _480
REMARK  198  A    between atoms: _480  and  _481
REMARK  199  A    between atoms: _480  and  _483
REMARK  200  A    between atoms: _483  and  _484
REMARK  201  A    between atoms: _487  and  _489
REMARK  202  A    between atoms: _489  and  _490
REMARK  203  A    between atoms: _489  and  _492
REMARK  204  A    between atoms: _492  and  _493
REMARK  205  A    between atoms: _498  and  _500
REMARK  206  A    between atoms: _500  and  _501
REMARK  207  A    between atoms: _500  and  _503
REMARK  208  A    between atoms: _503  and  _504
REMARK  209  A    between atoms: _504  and  _505
REMARK  210  A    between atoms: _505  and  _506
REMARK  211  A    between atoms: _506  and  _507
REMARK  212  A    between atoms: _511  and  _513
REMARK  213  A    between atoms: _513  and  _514
REMARK  214  A    between atoms: _513  and  _516
REMARK  215  A    between atoms: _516  and  _517
REMARK                            x       y       z     vdW  Elec       q    Type
REMARK                         _______ _______ _______ _____ _____    ______ ____
ROOT
ATOM      1  CA  ALA A   3      23.567  36.399  33.719  0.00  0.00    +0.149 C 
ATOM      2  CB  ALA A   3      22.235  36.529  34.507  0.00  0.00    +0.031 C 
ENDROOT
BRANCH   1   4
ATOM      3  C   LEU A   2      24.268  35.079  31.787  0.00  0.00    +0.241 C 
ATOM      4  N   ALA A   3      23.632  35.149  32.954  0.00  0.00    -0.297 N 
ATOM      5  H   ALA A   3      23.170  34.297  33.332  0.00  0.00    +0.150 HD
ATOM      6  O   LEU A   2      24.754  36.061  31.250  0.00  0.00    -0.273 OA
BRANCH   3   7
ATOM      7  CA  LEU A   2      24.441  33.702  31.164  0.00  0.00    +0.149 C 
BRANCH   7  10
ATOM      8  C   ILE A   1      22.636  33.618  29.541  0.00  0.00    +0.238 C 
ATOM      9  O   ILE A   1      21.780  33.448  30.429  0.00  0.00    -0.274 OA
ATOM     10  N   LEU A   2      23.933  33.748  29.790  0.00  0.00    -0.297 N 
ATOM     11  H   LEU A   2      24.597  33.884  29.001  0.00  0.00    +0.150 HD
BRANCH   8  12
ATOM     12  CA  ILE A   1      22.216  33.651  28.072  0.00  0.00    +0.145 C 
BRANCH  12  13
ATOM     13  CB  ILE A   1      21.342  34.911  27.839  0.00  0.00    +0.025 C 
ATOM     14  CG2 ILE A   1      22.070  36.209  28.264  0.00  0.00    +0.002 C 
BRANCH  13  15
ATOM     15  CG1 ILE A   1      20.954  34.957  26.349  0.00  0.00    +0.002 C 
ATOM     16  CD1 ILE A   1      19.822  35.961  26.062  0.00  0.00    +0.000 C 
ENDBRANCH  13  15
ENDBRANCH  12  13
BRANCH  12  17
ATOM     17  N   ILE A   1      21.426  32.440  27.804  0.00  0.00    -0.238 NA
ATOM     18  H   ILE A   1      20.522  32.321  28.305  0.00  0.00    +0.142 HD
ENDBRANCH  12  17
ENDBRANCH   8  12
ENDBRANCH   7  10
BRANCH   7  19
ATOM     19  CB  LEU A   2      25.935  33.342  31.114  0.00  0.00    +0.029 C 
BRANCH  19  20
ATOM     20  CG  LEU A   2      26.662  33.400  32.459  0.00  0.00    +0.002 C 
ATOM     21  CD2 LEU A   2      26.152  32.363  33.459  0.00  0.00    +0.000 C 
ATOM     22  CD1 LEU A   2      28.162  33.188  32.227  0.00  0.00    +0.000 C 
ENDBRANCH  19  20
ENDBRANCH   7  19
ENDBRANCH   3   7
ENDBRANCH   1   4
BRANCH   1  23
ATOM     23  C   ALA A   3      24.756  36.404  34.688  0.00  0.00    +0.241 C 
ATOM     24  O   ALA A   3      24.733  35.727  35.760  0.00  0.00    -0.273 OA
ATOM     25  N   MET A   4      25.806  37.137  34.289  0.00  0.00    -0.297 N 
ATOM     26  H   MET A   4      25.742  37.716  33.428  0.00  0.00    +0.150 HD
BRANCH  25  27
ATOM     27  CA  MET A   4      27.038  37.117  35.070  0.00  0.00    +0.149 C 
BRANCH  27  28
ATOM     28  C   MET A   4      27.038  38.175  36.128  0.00  0.00    +0.241 C 
ATOM     29  N   ASP A   5      26.485  37.814  37.307  0.00  0.00    -0.298 N 
ATOM     30  H   ASP A   5      26.176  36.830  37.443  0.00  0.00    +0.150 HD
ATOM     31  O   MET A   4      27.544  39.297  35.899  0.00  0.00    -0.273 OA
BRANCH  29  32
ATOM     32  CA  ASP A   5      26.311  38.771  38.394  0.00  0.00    +0.148 C 
BRANCH  32  33
ATOM     33  C   ASP A   5      27.218  38.480  39.580  0.00  0.00    +0.227 C 
ATOM     34  O   ASP A   5      27.016  39.049  40.657  0.00  0.00    -0.286 OA
ENDBRANCH  32  33
BRANCH  32  35
ATOM     35  CB  ASP A   5      24.836  38.765  38.870  0.00  0.00    +0.142 C 
BRANCH  35  36
ATOM     36  CG  ASP A   5      23.880  39.262  37.817  0.00  0.00    +0.367 C 
ATOM     37  OD2 ASP A   5      22.826  38.604  37.681  0.00  0.00    -0.246 OA
ATOM     38  OD1 ASP A   5      24.152  40.285  37.164  0.00  0.00    -0.246 OA
ENDBRANCH  35  36
ENDBRANCH  32  35
ENDBRANCH  29  32
ENDBRANCH  27  28
BRANCH  27  39
ATOM     39  CB  MET A   4      28.270  37.188  34.125  0.00  0.00    +0.041 C 
BRANCH  39  40
ATOM     40  CG  MET A   4      29.609  37.153  34.854  0.00  0.00    +0.060 C 
BRANCH  40  41
ATOM     41  SD  MET A   4      29.709  36.135  36.354  0.00  0.00    -0.139 S 
ATOM     42  CE  MET A   4      29.396  34.496  35.677  0.00  0.00    +0.069 C 
ENDBRANCH  40  41
ENDBRANCH  39  40
ENDBRANCH  27  39
ENDBRANCH  25  27
ENDBRANCH   1  23
TORSDOF 19
REMARK  Name = ../refined-set-2016/3wjw/3wjw_pocket.pdb
REMARK  215 active torsions:
REMARK  status: ('A' for Active; 'I' for Inactive)
REMARK    1  A    between atoms: _1  and  _3
REMARK    2  A    between atoms: _3  and  _4
REMARK    3  A    between atoms: _3  and  _6
REMARK    4  A    between atoms: _6  and  _7
REMARK    5  A    between atoms: _10  and  _12
REMARK    6  A    between atoms: _12  and  _13
REMARK    7  A    between atoms: _12  and  _15
REMARK    8  A    between atoms: _15  and  _16
REMARK    9  A    between atoms: _19  and  _21
REMARK   10  A    between atoms: _21  and  _22
REMARK   11  A    between atoms: _25  and  _27
REMARK   12  A    between atoms: _27  and  _28
REMARK   13  A    between atoms: _27  and  _30
REMARK   14  A    between atoms: _30  and  _31
REMARK   15  A    between atoms: _31  and  _32
REMARK   16  A    between atoms: _34  and  _36
REMARK   17  A    between atoms: _36  and  _37
REMARK   18  A    between atoms: _36  and  _39
REMARK   19  A    between atoms: _39  and  _40
REMARK   20  A    between atoms: _43  and  _45
REMARK   21  A    between atoms: _45  and  _46
REMARK   22  A    between atoms: _45  and  _48
REMARK   23  A    between atoms: _48  and  _49
REMARK   24  A    between atoms: _49  and  _50
REMARK   25  A    between atoms: _50  and  _51
REMARK   26  A    between atoms: _51  and  _52
REMARK   27  A    between atoms: _56  and  _58
REMARK   28  A    between atoms: _58  and  _59
REMARK   29  A    between atoms: _58  and  _61
REMARK   30  A    between atoms: _61  and  _62
REMARK   31  A    between atoms: _65  and  _67
REMARK   32  A    between atoms: _67  and  _68
REMARK   33  A    between atoms: _70  and  _72
REMARK   34  A    between atoms: _72  and  _73
REMARK   35  A    between atoms: _72  and  _75
REMARK   36  A    between atoms: _75  and  _76
REMARK   37  A    between atoms: _81  and  _82
REMARK   38  A    between atoms: _85  and  _86
REMARK   39  A    between atoms: _91  and  _93
REMARK   40  A    between atoms: _93  and  _94
REMARK   41  A    between atoms: _93  and  _96
REMARK   42  A    between atoms: _96  and  _97
REMARK   43  A    between atoms: _100  and  _102
REMARK   44  A    between atoms: _102  and  _103
REMARK   45  A    between atoms: _102  and  _105
REMARK   46  A    between atoms: _105  and  _106
REMARK   47  A    between atoms: _109  and  _111
REMARK   48  A    between atoms: _111  and  _112
REMARK   49  A    between atoms: _111  and  _114
REMARK   50  A    between atoms: _114  and  _115
REMARK   51  A    between atoms: _118  and  _120
REMARK   52  A    between atoms: _120  and  _121
REMARK   53  A    between atoms: _120  and  _123
REMARK   54  A    between atoms: _123  and  _124
REMARK   55  A    between atoms: _130  and  _132
REMARK   56  A    between atoms: _132  and  _133
REMARK   57  A    between atoms: _132  and  _135
REMARK   58  A    between atoms: _135  and  _136
REMARK   59  A    between atoms: _136  and  _137
REMARK   60  A    between atoms: _137  and  _138
REMARK   61  A    between atoms: _138  and  _139
REMARK   62  A    between atoms: _143  and  _145
REMARK   63  A    between atoms: _145  and  _146
REMARK   64  A    between atoms: _145  and  _148
REMARK   65  A    between atoms: _148  and  _149
REMARK   66  A    between atoms: _152  and  _154
REMARK   67  A    between atoms: _154  and  _155
REMARK   68  A    between atoms: _154  and  _157
REMARK   69  A    between atoms: _157  and  _158
REMARK   70  A    between atoms: _163  and  _165
REMARK   71  A    between atoms: _165  and  _166
REMARK   72  A    between atoms: _165  and  _168
REMARK   73  A    between atoms: _168  and  _169
REMARK   74  A    between atoms: _172  and  _174
REMARK   75  A    between atoms: _174  and  _175
REMARK   76  A    between atoms: _174  and  _177
REMARK   77  A    between atoms: _177  and  _178
REMARK   78  A    between atoms: _181  and  _183
REMARK   79  A    between atoms: _183  and  _184
REMARK   80  A    between atoms: _183  and  _186
REMARK   81  A    between atoms: _186  and  _187
REMARK   82  A    between atoms: _187  and  _188
REMARK   83  A    between atoms: _191  and  _193
REMARK   84  A    between atoms: _193  and  _194
REMARK   85  A    between atoms: _193  and  _196
REMARK   86  A    between atoms: _196  and  _197
REMARK   87  A    between atoms: _197  and  _198
REMARK   88  A    between atoms: _200  and  _202
REMARK   89  A    between atoms: _202  and  _203
REMARK   90  A    between atoms: _202  and  _205
REMARK   91  A    between atoms: _205  and  _206
REMARK   92  A    between atoms: _208  and  _210
REMARK   93  A    between atoms: _210  and  _211
REMARK   94  A    between atoms: _210  and  _213
REMARK   95  A    between atoms: _213  and  _214
REMARK   96  A    between atoms: _219  and  _221
REMARK   97  A    between atoms: _221  and  _222
REMARK   98  A    between atoms: _225  and  _227
REMARK   99  A    between atoms: _227  and  _228
REMARK  100  A    between atoms: _227  and  _230
REMARK  101  A    between atoms: _230  and  _231
REMARK  102  A    between atoms: _234  and  _236
REMARK  103  A    between atoms: _236  and  _237
REMARK  104  A    between atoms: _236  and  _239
REMARK  105  A    between atoms: _242  and  _244
REMARK  106  A    between atoms: _244  and  _245
REMARK  107  A    between atoms: _248  and  _249
REMARK  108  A    between atoms: _254  and  _256
REMARK  109  A    between atoms: _256  and  _257
REMARK  110  A    between atoms: _256  and  _259
REMARK  111  A    between atoms: _259  and  _260
REMARK  112  A    between atoms: _262  and  _264
REMARK  113  A    between atoms: _264  and  _265
REMARK  114  A    between atoms: _264  and  _267
REMARK  115  A    between atoms: _267  and  _268
REMARK  116  A    between atoms: _271  and  _273
REMARK  117  A    between atoms: _273  and  _274
REMARK  118  A    between atoms: _273  and  _276
REMARK  119  A    between atoms: _276  and  _277
REMARK  120  A    between atoms: _277  and  _278
REMARK  121  A    between atoms: _278  and  _279
REMARK  122  A    between atoms: _288  and  _290
REMARK  123  A    between atoms: _290  and  _291
REMARK  124  A    between atoms: _290  and  _293
REMARK  125  A    between atoms: _293  and  _294
REMARK  126  A    between atoms: _297  and  _299
REMARK  127  A    between atoms: _299  and  _300
REMARK  128  A    between atoms: _299  and  _302
REMARK  129  A    between atoms: _302  and  _303
REMARK  130  A    between atoms: _306  and  _307
REMARK  131  A    between atoms: _312  and  _314
REMARK  132  A    between atoms: _314  and  _315
REMARK  133  A    between atoms: _317  and  _319
REMARK  134  A    between atoms: _319  and  _320
REMARK  135  A    between atoms: _319  and  _322
REMARK  136  A    between atoms: _325  and  _327
REMARK  137  A    between atoms: _327  and  _328
REMARK  138  A    between atoms: _330  and  _332
REMARK  139  A    between atoms: _332  and  _333
REMARK  140  A    between atoms: _336  and  _338
REMARK  141  A    between atoms: _338  and  _339
REMARK  142  A    between atoms: _338  and  _341
REMARK  143  A    between atoms: _341  and  _342
REMARK  144  A    between atoms: _342  and  _343
REMARK  145  A    between atoms: _348  and  _350
REMARK  146  A    between atoms: _350  and  _351
REMARK  147  A    between atoms: _353  and  _355
REMARK  148  A    between atoms: _355  and  _356
REMARK  149  A    between atoms: _358  and  _360
REMARK  150  A    between atoms: _360  and  _361
REMARK  151  A    between atoms: _360  and  _363
REMARK  152  A    between atoms: _363  and  _364
REMARK  153  A    between atoms: _367  and  _369
REMARK  154  A    between atoms: _369  and  _370
REMARK  155  A    between atoms: _369  and  _372
REMARK  156  A    between atoms: _375  and  _377
REMARK  157  A    between atoms: _377  and  _378
REMARK  158  A    between atoms: _380  and  _382
REMARK  159  A    between atoms: _382  and  _383
REMARK  160  A    between atoms: _382  and  _385
REMARK  161  A    between atoms: _385  and  _386
REMARK  162  A    between atoms: _386  and  _387
REMARK  163  A    between atoms: _387  and  _388
REMARK  164  A    between atoms: _397  and  _399
REMARK  165  A    between atoms: _399  and  _400
REMARK  166  A    between atoms: _399  and  _402
REMARK  167  A    between atoms: _402  and  _403
REMARK  168  A    between atoms: _405  and  _407
REMARK  169  A    between atoms: _407  and  _408
REMARK  170  A    between atoms: _407  and  _410
REMARK  171  A    between atoms: _410  and  _411
REMARK  172  A    between atoms: _414  and  _416
REMARK  173  A    between atoms: _416  and  _417
REMARK  174  A    between atoms: _416  and  _419
REMARK  175  A    between atoms: _419  and  _420
REMARK  176  A    between atoms: _425  and  _426
REMARK  177  A    between atoms: _428  and  _430
REMARK  178  A    between atoms: _430  and  _431
REMARK  179  A    between atoms: _430  and  _433
REMARK  180  A    between atoms: _433  and  _434
REMARK  181  A    between atoms: _437  and  _439
REMARK  182  A    between atoms: _439  and  _440
REMARK  183  A    between atoms: _443  and  _445
REMARK  184  A    between atoms: _445  and  _446
REMARK  185  A    between atoms: _445  and  _448
REMARK  186  A    between atoms: _448  and  _449
REMARK  187  A    between atoms: _452  and  _454
REMARK  188  A    between atoms: _454  and  _455
REMARK  189  A    between atoms: _454  and  _457
REMARK  190  A    between atoms: _457  and  _458
REMARK  191  A    between atoms: _462  and  _463
REMARK  192  A    between atoms: _468  and  _470
REMARK  193  A    between atoms: _470  and  _471
REMARK  194  A    between atoms: _470  and  _473
REMARK  195  A    between atoms: _473  and  _474
REMARK  196  A    between atoms: _474  and  _475
REMARK  197  A    between atoms: _478  and  _480
REMARK  198  A    between atoms: _480  and  _481
REMARK  199  A    between atoms: _480  and  _483
REMARK  200  A    between atoms: _483  and  _484
REMARK  201  A    between atoms: _487  and  _489
REMARK  202  A    between atoms: _489  and  _490
REMARK  203  A    between atoms: _489  and  _492
REMARK  204  A    between atoms: _492  and  _493
REMARK  205  A    between atoms: _498  and  _500
REMARK  206  A    between atoms: _500  and  _501
REMARK  207  A    between atoms: _500  and  _503
REMARK  208  A    between atoms: _503  and  _504
REMARK  209  A    between atoms: _504  and  _505
REMARK  210  A    between atoms: _505  and  _506
REMARK  211  A    between atoms: _506  and  _507
REMARK  212  A    between atoms: _511  and  _513
REMARK  213  A    between atoms: _513  and  _514
REMARK  214  A    between atoms: _513  and  _516
REMARK  215  A    between atoms: _516  and  _517
REMARK                            x       y       z     vdW  Elec       q    Type
REMARK                         _______ _______ _______ _____ _____    ______ ____
ROOT
ATOM      1  C   GLY A   3      25.760  44.962  35.888  0.00  0.00    +0.243 C 
ATOM      2  N   TYR A   4      25.043  45.745  36.681  0.00  0.00    -0.297 N 
ATOM      3  H   TYR A   4      24.004  45.739  36.626  0.00  0.00    +0.150 HD
ATOM      4  O   GLY A   3      27.003  44.919  35.909  0.00  0.00    -0.273 OA
ENDROOT
BRANCH   2   5
ATOM      5  CA  TYR A   4      25.721  46.611  37.627  0.00  0.00    +0.153 C 
BRANCH   5   6
ATOM      6  C   TYR A   4      26.463  45.897  38.771  0.00  0.00    +0.244 C 
ATOM      7  N   PRO A   5      26.004  44.736  39.244  0.00  0.00    -0.272 N 
ATOM      8  CA  PRO A   5      26.855  44.090  40.294  0.00  0.00    +0.152 C 
ATOM      9  CB  PRO A   5      26.167  42.740  40.528  0.00  0.00    +0.031 C 
ATOM     10  CG  PRO A   5      24.689  43.044  40.195  0.00  0.00    +0.024 C 
ATOM     11  CD  PRO A   5      24.770  43.979  38.999  0.00  0.00    +0.094 C 
ATOM     12  O   TYR A   4      27.442  46.435  39.223  0.00  0.00    -0.273 OA
BRANCH   8  13
ATOM     13  C   PRO A   5      28.307  43.938  39.818  0.00  0.00    +0.241 C 
ATOM     14  O   PRO A   5      29.246  44.265  40.563  0.00  0.00    -0.273 OA
ATOM     15  N   LEU A   6      28.519  43.500  38.577  0.00  0.00    -0.298 N 
ATOM     16  H   LEU A   6      27.720  43.314  37.938  0.00  0.00    +0.150 HD
BRANCH  15  17
ATOM     17  CA  LEU A   6      29.902  43.285  38.128  0.00  0.00    +0.137 C 
BRANCH  17  18
ATOM     18  C   LEU A   6      30.514  44.624  37.733  0.00  0.00    +0.227 C 
ATOM     19  O   LEU A   6      31.665  44.903  38.105  0.00  0.00    -0.286 OA
ENDBRANCH  17  18
BRANCH  17  20
ATOM     20  CB  LEU A   6      29.938  42.267  36.965  0.00  0.00    +0.028 C 
BRANCH  20  21
ATOM     21  CG  LEU A   6      31.373  41.976  36.464  0.00  0.00    +0.002 C 
ATOM     22  CD2 LEU A   6      32.354  41.502  37.600  0.00  0.00    +0.000 C 
ATOM     23  CD1 LEU A   6      31.264  40.925  35.396  0.00  0.00    +0.000 C 
ENDBRANCH  20  21
ENDBRANCH  17  20
ENDBRANCH  15  17
ENDBRANCH   8  13
ENDBRANCH   5   6
BRANCH   5  24
ATOM     24  CB  TYR A   4      24.746  47.666  38.147  0.00  0.00    +0.055 C 
BRANCH  24  25
ATOM     25  CG  TYR A   4      24.396  48.746  37.133  0.00  0.00    -0.020 A 
ATOM     26  CD2 TYR A   4      23.072  49.154  36.951  0.00  0.00    -0.001 A 
ATOM     27  CE2 TYR A   4      22.763  50.188  36.037  0.00  0.00    +0.036 A 
ATOM     28  CZ  TYR A   4      23.811  50.808  35.344  0.00  0.00    +0.134 A 
ATOM     29  CE1 TYR A   4      25.139  50.405  35.488  0.00  0.00    +0.036 A 
ATOM     30  CD1 TYR A   4      25.424  49.403  36.416  0.00  0.00    -0.001 A 
BRANCH  28  31
ATOM     31  OH  TYR A   4      23.601  51.840  34.429  0.00  0.00    -0.506 OA
ATOM     32  HH  TYR A   4      22.636  52.057  34.394  0.00  0.00    +0.292 HD
ENDBRANCH  28  31
ENDBRANCH  24  25
ENDBRANCH   5  24
ENDBRANCH   2   5
BRANCH   1  33
ATOM     33  CA  GLY A   3      24.912  44.141  34.926  0.00  0.00    +0.176 C 
BRANCH  33  35
ATOM     34  C   ILE A   2      25.810  43.023  32.963  0.00  0.00    +0.241 C 
ATOM     35  N   GLY A   3      25.709  43.092  34.283  0.00  0.00    -0.295 N 
ATOM     36  H   GLY A   3      26.203  42.391  34.872  0.00  0.00    +0.150 HD
ATOM     37  O   ILE A   2      25.326  43.851  32.198  0.00  0.00    -0.273 OA
BRANCH  34  38
ATOM     38  CA  ILE A   2      26.602  41.861  32.400  0.00  0.00    +0.148 C 
BRANCH  38  41
ATOM     39  C   LYS A   1      25.321  40.032  31.407  0.00  0.00    +0.238 C 
ATOM     40  O   LYS A   1      25.535  39.284  32.391  0.00  0.00    -0.274 OA
ATOM     41  N   ILE A   2      25.798  41.280  31.322  0.00  0.00    -0.297 N 
ATOM     42  H   ILE A   2      25.594  41.848  30.475  0.00  0.00    +0.150 HD
BRANCH  39  43
ATOM     43  CA  LYS A   1      24.487  39.549  30.211  0.00  0.00    +0.145 C 
BRANCH  43  44
ATOM     44  N   LYS A   1      25.144  38.363  29.690  0.00  0.00    -0.238 NA
ATOM     45  H   LYS A   1      24.938  37.444  30.132  0.00  0.00    +0.142 HD
ENDBRANCH  43  44
BRANCH  43  46
ATOM     46  CB  LYS A   1      23.069  39.185  30.665  0.00  0.00    +0.026 C 
BRANCH  46  47
ATOM     47  CG  LYS A   1      22.306  40.453  31.087  0.00  0.00    -0.000 C 
BRANCH  47  48
ATOM     48  CD  LYS A   1      20.850  40.072  31.445  0.00  0.00    -0.024 C 
BRANCH  48  49
ATOM     49  CE  LYS A   1      20.750  39.453  32.860  0.00  0.00    -0.086 C 
BRANCH  49  50
ATOM     50  NZ  LYS A   1      21.209  40.350  33.923  0.00  0.00    +0.380 N 
ATOM     51  HZ1 LYS A   1      21.115  39.873  34.842  0.00  0.00    -0.089 HD
ATOM     52  HZ2 LYS A   1      20.631  41.215  33.919  0.00  0.00    -0.089 HD
ATOM     53  HZ3 LYS A   1      22.206  40.597  33.760  0.00  0.00    -0.089 HD
ENDBRANCH  49  50
ENDBRANCH  48  49
ENDBRANCH  47  48
ENDBRANCH  46  47
ENDBRANCH  43  46
ENDBRANCH  39  43
ENDBRANCH  38  41
BRANCH  38  54
ATOM     54  CB  ILE A   2      27.971  42.327  31.849  0.00  0.00    +0.027 C 
ATOM     55  CG2 ILE A   2      28.741  43.135  32.949  0.00  0.00    +0.002 C 
BRANCH  54  56
ATOM     56  CG1 ILE A   2      28.789  41.126  31.363  0.00  0.00    +0.002 C 
ATOM     57  CD1 ILE A   2      30.207  41.456  30.861  0.00  0.00    +0.000 C 
ENDBRANCH  54  56
ENDBRANCH  38  54
ENDBRANCH  34  38
ENDBRANCH  33  35
ENDBRANCH   1  33
TORSDOF 23
REMARK  Name = ../refined-set-2016/3wjw/3wjw_pocket.pdb
REMARK  215 active torsions:
REMARK  status: ('A' for Active; 'I' for Inactive)
REMARK    1  A    between atoms: _1  and  _3
REMARK    2  A    between atoms: _3  and  _4
REMARK    3  A    between atoms: _3  and  _6
REMARK    4  A    between atoms: _6  and  _7
REMARK    5  A    between atoms: _10  and  _12
REMARK    6  A    between atoms: _12  and  _13
REMARK    7  A    between atoms: _12  and  _15
REMARK    8  A    between atoms: _15  and  _16
REMARK    9  A    between atoms: _19  and  _21
REMARK   10  A    between atoms: _21  and  _22
REMARK   11  A    between atoms: _25  and  _27
REMARK   12  A    between atoms: _27  and  _28
REMARK   13  A    between atoms: _27  and  _30
REMARK   14  A    between atoms: _30  and  _31
REMARK   15  A    between atoms: _31  and  _32
REMARK   16  A    between atoms: _34  and  _36
REMARK   17  A    between atoms: _36  and  _37
REMARK   18  A    between atoms: _36  and  _39
REMARK   19  A    between atoms: _39  and  _40
REMARK   20  A    between atoms: _43  and  _45
REMARK   21  A    between atoms: _45  and  _46
REMARK   22  A    between atoms: _45  and  _48
REMARK   23  A    between atoms: _48  and  _49
REMARK   24  A    between atoms: _49  and  _50
REMARK   25  A    between atoms: _50  and  _51
REMARK   26  A    between atoms: _51  and  _52
REMARK   27  A    between atoms: _56  and  _58
REMARK   28  A    between atoms: _58  and  _59
REMARK   29  A    between atoms: _58  and  _61
REMARK   30  A    between atoms: _61  and  _62
REMARK   31  A    between atoms: _65  and  _67
REMARK   32  A    between atoms: _67  and  _68
REMARK   33  A    between atoms: _70  and  _72
REMARK   34  A    between atoms: _72  and  _73
REMARK   35  A    between atoms: _72  and  _75
REMARK   36  A    between atoms: _75  and  _76
REMARK   37  A    between atoms: _81  and  _82
REMARK   38  A    between atoms: _85  and  _86
REMARK   39  A    between atoms: _91  and  _93
REMARK   40  A    between atoms: _93  and  _94
REMARK   41  A    between atoms: _93  and  _96
REMARK   42  A    between atoms: _96  and  _97
REMARK   43  A    between atoms: _100  and  _102
REMARK   44  A    between atoms: _102  and  _103
REMARK   45  A    between atoms: _102  and  _105
REMARK   46  A    between atoms: _105  and  _106
REMARK   47  A    between atoms: _109  and  _111
REMARK   48  A    between atoms: _111  and  _112
REMARK   49  A    between atoms: _111  and  _114
REMARK   50  A    between atoms: _114  and  _115
REMARK   51  A    between atoms: _118  and  _120
REMARK   52  A    between atoms: _120  and  _121
REMARK   53  A    between atoms: _120  and  _123
REMARK   54  A    between atoms: _123  and  _124
REMARK   55  A    between atoms: _130  and  _132
REMARK   56  A    between atoms: _132  and  _133
REMARK   57  A    between atoms: _132  and  _135
REMARK   58  A    between atoms: _135  and  _136
REMARK   59  A    between atoms: _136  and  _137
REMARK   60  A    between atoms: _137  and  _138
REMARK   61  A    between atoms: _138  and  _139
REMARK   62  A    between atoms: _143  and  _145
REMARK   63  A    between atoms: _145  and  _146
REMARK   64  A    between atoms: _145  and  _148
REMARK   65  A    between atoms: _148  and  _149
REMARK   66  A    between atoms: _152  and  _154
REMARK   67  A    between atoms: _154  and  _155
REMARK   68  A    between atoms: _154  and  _157
REMARK   69  A    between atoms: _157  and  _158
REMARK   70  A    between atoms: _163  and  _165
REMARK   71  A    between atoms: _165  and  _166
REMARK   72  A    between atoms: _165  and  _168
REMARK   73  A    between atoms: _168  and  _169
REMARK   74  A    between atoms: _172  and  _174
REMARK   75  A    between atoms: _174  and  _175
REMARK   76  A    between atoms: _174  and  _177
REMARK   77  A    between atoms: _177  and  _178
REMARK   78  A    between atoms: _181  and  _183
REMARK   79  A    between atoms: _183  and  _184
REMARK   80  A    between atoms: _183  and  _186
REMARK   81  A    between atoms: _186  and  _187
REMARK   82  A    between atoms: _187  and  _188
REMARK   83  A    between atoms: _191  and  _193
REMARK   84  A    between atoms: _193  and  _194
REMARK   85  A    between atoms: _193  and  _196
REMARK   86  A    between atoms: _196  and  _197
REMARK   87  A    between atoms: _197  and  _198
REMARK   88  A    between atoms: _200  and  _202
REMARK   89  A    between atoms: _202  and  _203
REMARK   90  A    between atoms: _202  and  _205
REMARK   91  A    between atoms: _205  and  _206
REMARK   92  A    between atoms: _208  and  _210
REMARK   93  A    between atoms: _210  and  _211
REMARK   94  A    between atoms: _210  and  _213
REMARK   95  A    between atoms: _213  and  _214
REMARK   96  A    between atoms: _219  and  _221
REMARK   97  A    between atoms: _221  and  _222
REMARK   98  A    between atoms: _225  and  _227
REMARK   99  A    between atoms: _227  and  _228
REMARK  100  A    between atoms: _227  and  _230
REMARK  101  A    between atoms: _230  and  _231
REMARK  102  A    between atoms: _234  and  _236
REMARK  103  A    between atoms: _236  and  _237
REMARK  104  A    between atoms: _236  and  _239
REMARK  105  A    between atoms: _242  and  _244
REMARK  106  A    between atoms: _244  and  _245
REMARK  107  A    between atoms: _248  and  _249
REMARK  108  A    between atoms: _254  and  _256
REMARK  109  A    between atoms: _256  and  _257
REMARK  110  A    between atoms: _256  and  _259
REMARK  111  A    between atoms: _259  and  _260
REMARK  112  A    between atoms: _262  and  _264
REMARK  113  A    between atoms: _264  and  _265
REMARK  114  A    between atoms: _264  and  _267
REMARK  115  A    between atoms: _267  and  _268
REMARK  116  A    between atoms: _271  and  _273
REMARK  117  A    between atoms: _273  and  _274
REMARK  118  A    between atoms: _273  and  _276
REMARK  119  A    between atoms: _276  and  _277
REMARK  120  A    between atoms: _277  and  _278
REMARK  121  A    between atoms: _278  and  _279
REMARK  122  A    between atoms: _288  and  _290
REMARK  123  A    between atoms: _290  and  _291
REMARK  124  A    between atoms: _290  and  _293
REMARK  125  A    between atoms: _293  and  _294
REMARK  126  A    between atoms: _297  and  _299
REMARK  127  A    between atoms: _299  and  _300
REMARK  128  A    between atoms: _299  and  _302
REMARK  129  A    between atoms: _302  and  _303
REMARK  130  A    between atoms: _306  and  _307
REMARK  131  A    between atoms: _312  and  _314
REMARK  132  A    between atoms: _314  and  _315
REMARK  133  A    between atoms: _317  and  _319
REMARK  134  A    between atoms: _319  and  _320
REMARK  135  A    between atoms: _319  and  _322
REMARK  136  A    between atoms: _325  and  _327
REMARK  137  A    between atoms: _327  and  _328
REMARK  138  A    between atoms: _330  and  _332
REMARK  139  A    between atoms: _332  and  _333
REMARK  140  A    between atoms: _336  and  _338
REMARK  141  A    between atoms: _338  and  _339
REMARK  142  A    between atoms: _338  and  _341
REMARK  143  A    between atoms: _341  and  _342
REMARK  144  A    between atoms: _342  and  _343
REMARK  145  A    between atoms: _348  and  _350
REMARK  146  A    between atoms: _350  and  _351
REMARK  147  A    between atoms: _353  and  _355
REMARK  148  A    between atoms: _355  and  _356
REMARK  149  A    between atoms: _358  and  _360
REMARK  150  A    between atoms: _360  and  _361
REMARK  151  A    between atoms: _360  and  _363
REMARK  152  A    between atoms: _363  and  _364
REMARK  153  A    between atoms: _367  and  _369
REMARK  154  A    between atoms: _369  and  _370
REMARK  155  A    between atoms: _369  and  _372
REMARK  156  A    between atoms: _375  and  _377
REMARK  157  A    between atoms: _377  and  _378
REMARK  158  A    between atoms: _380  and  _382
REMARK  159  A    between atoms: _382  and  _383
REMARK  160  A    between atoms: _382  and  _385
REMARK  161  A    between atoms: _385  and  _386
REMARK  162  A    between atoms: _386  and  _387
REMARK  163  A    between atoms: _387  and  _388
REMARK  164  A    between atoms: _397  and  _399
REMARK  165  A    between atoms: _399  and  _400
REMARK  166  A    between atoms: _399  and  _402
REMARK  167  A    between atoms: _402  and  _403
REMARK  168  A    between atoms: _405  and  _407
REMARK  169  A    between atoms: _407  and  _408
REMARK  170  A    between atoms: _407  and  _410
REMARK  171  A    between atoms: _410  and  _411
REMARK  172  A    between atoms: _414  and  _416
REMARK  173  A    between atoms: _416  and  _417
REMARK  174  A    between atoms: _416  and  _419
REMARK  175  A    between atoms: _419  and  _420
REMARK  176  A    between atoms: _425  and  _426
REMARK  177  A    between atoms: _428  and  _430
REMARK  178  A    between atoms: _430  and  _431
REMARK  179  A    between atoms: _430  and  _433
REMARK  180  A    between atoms: _433  and  _434
REMARK  181  A    between atoms: _437  and  _439
REMARK  182  A    between atoms: _439  and  _440
REMARK  183  A    between atoms: _443  and  _445
REMARK  184  A    between atoms: _445  and  _446
REMARK  185  A    between atoms: _445  and  _448
REMARK  186  A    between atoms: _448  and  _449
REMARK  187  A    between atoms: _452  and  _454
REMARK  188  A    between atoms: _454  and  _455
REMARK  189  A    between atoms: _454  and  _457
REMARK  190  A    between atoms: _457  and  _458
REMARK  191  A    between atoms: _462  and  _463
REMARK  192  A    between atoms: _468  and  _470
REMARK  193  A    between atoms: _470  and  _471
REMARK  194  A    between atoms: _470  and  _473
REMARK  195  A    between atoms: _473  and  _474
REMARK  196  A    between atoms: _474  and  _475
REMARK  197  A    between atoms: _478  and  _480
REMARK  198  A    between atoms: _480  and  _481
REMARK  199  A    between atoms: _480  and  _483
REMARK  200  A    between atoms: _483  and  _484
REMARK  201  A    between atoms: _487  and  _489
REMARK  202  A    between atoms: _489  and  _490
REMARK  203  A    between atoms: _489  and  _492
REMARK  204  A    between atoms: _492  and  _493
REMARK  205  A    between atoms: _498  and  _500
REMARK  206  A    between atoms: _500  and  _501
REMARK  207  A    between atoms: _500  and  _503
REMARK  208  A    between atoms: _503  and  _504
REMARK  209  A    between atoms: _504  and  _505
REMARK  210  A    between atoms: _505  and  _506
REMARK  211  A    between atoms: _506  and  _507
REMARK  212  A    between atoms: _511  and  _513
REMARK  213  A    between atoms: _513  and  _514
REMARK  214  A    between atoms: _513  and  _516
REMARK  215  A    between atoms: _516  and  _517
REMARK                            x       y       z     vdW  Elec       q    Type
REMARK                         _______ _______ _______ _____ _____    ______ ____
ROOT
ATOM      1  CA  ILE A   1      24.044  42.636  26.796  0.00  0.00    +0.133 C 
ENDROOT
BRANCH   1   2
ATOM      2  N   ILE A   1      25.227  41.817  26.504  0.00  0.00    -0.239 NA
ATOM      3  H   ILE A   1      25.335  40.898  26.979  0.00  0.00    +0.142 HD
ENDBRANCH   1   2
BRANCH   1   4
ATOM      4  C   ILE A   1      24.287  43.329  28.128  0.00  0.00    +0.224 C 
ATOM      5  O   ILE A   1      24.541  42.665  29.140  0.00  0.00    -0.287 OA
ENDBRANCH   1   4
BRANCH   1   6
ATOM      6  CB  ILE A   1      22.798  41.757  26.900  0.00  0.00    +0.023 C 
ATOM      7  CG2 ILE A   1      21.576  42.637  27.276  0.00  0.00    +0.002 C 
BRANCH   6   8
ATOM      8  CG1 ILE A   1      22.567  41.032  25.567  0.00  0.00    +0.002 C 
ATOM      9  CD1 ILE A   1      21.327  40.056  25.621  0.00  0.00    +0.000 C 
ENDBRANCH   6   8
ENDBRANCH   1   6
TORSDOF 4
REMARK  Name = ../refined-set-2016/3wjw/3wjw_pocket.pdb
REMARK  215 active torsions:
REMARK  status: ('A' for Active; 'I' for Inactive)
REMARK    1  A    between atoms: _1  and  _3
REMARK    2  A    between atoms: _3  and  _4
REMARK    3  A    between atoms: _3  and  _6
REMARK    4  A    between atoms: _6  and  _7
REMARK    5  A    between atoms: _10  and  _12
REMARK    6  A    between atoms: _12  and  _13
REMARK    7  A    between atoms: _12  and  _15
REMARK    8  A    between atoms: _15  and  _16
REMARK    9  A    between atoms: _19  and  _21
REMARK   10  A    between atoms: _21  and  _22
REMARK   11  A    between atoms: _25  and  _27
REMARK   12  A    between atoms: _27  and  _28
REMARK   13  A    between atoms: _27  and  _30
REMARK   14  A    between atoms: _30  and  _31
REMARK   15  A    between atoms: _31  and  _32
REMARK   16  A    between atoms: _34  and  _36
REMARK   17  A    between atoms: _36  and  _37
REMARK   18  A    between atoms: _36  and  _39
REMARK   19  A    between atoms: _39  and  _40
REMARK   20  A    between atoms: _43  and  _45
REMARK   21  A    between atoms: _45  and  _46
REMARK   22  A    between atoms: _45  and  _48
REMARK   23  A    between atoms: _48  and  _49
REMARK   24  A    between atoms: _49  and  _50
REMARK   25  A    between atoms: _50  and  _51
REMARK   26  A    between atoms: _51  and  _52
REMARK   27  A    between atoms: _56  and  _58
REMARK   28  A    between atoms: _58  and  _59
REMARK   29  A    between atoms: _58  and  _61
REMARK   30  A    between atoms: _61  and  _62
REMARK   31  A    between atoms: _65  and  _67
REMARK   32  A    between atoms: _67  and  _68
REMARK   33  A    between atoms: _70  and  _72
REMARK   34  A    between atoms: _72  and  _73
REMARK   35  A    between atoms: _72  and  _75
REMARK   36  A    between atoms: _75  and  _76
REMARK   37  A    between atoms: _81  and  _82
REMARK   38  A    between atoms: _85  and  _86
REMARK   39  A    between atoms: _91  and  _93
REMARK   40  A    between atoms: _93  and  _94
REMARK   41  A    between atoms: _93  and  _96
REMARK   42  A    between atoms: _96  and  _97
REMARK   43  A    between atoms: _100  and  _102
REMARK   44  A    between atoms: _102  and  _103
REMARK   45  A    between atoms: _102  and  _105
REMARK   46  A    between atoms: _105  and  _106
REMARK   47  A    between atoms: _109  and  _111
REMARK   48  A    between atoms: _111  and  _112
REMARK   49  A    between atoms: _111  and  _114
REMARK   50  A    between atoms: _114  and  _115
REMARK   51  A    between atoms: _118  and  _120
REMARK   52  A    between atoms: _120  and  _121
REMARK   53  A    between atoms: _120  and  _123
REMARK   54  A    between atoms: _123  and  _124
REMARK   55  A    between atoms: _130  and  _132
REMARK   56  A    between atoms: _132  and  _133
REMARK   57  A    between atoms: _132  and  _135
REMARK   58  A    between atoms: _135  and  _136
REMARK   59  A    between atoms: _136  and  _137
REMARK   60  A    between atoms: _137  and  _138
REMARK   61  A    between atoms: _138  and  _139
REMARK   62  A    between atoms: _143  and  _145
REMARK   63  A    between atoms: _145  and  _146
REMARK   64  A    between atoms: _145  and  _148
REMARK   65  A    between atoms: _148  and  _149
REMARK   66  A    between atoms: _152  and  _154
REMARK   67  A    between atoms: _154  and  _155
REMARK   68  A    between atoms: _154  and  _157
REMARK   69  A    between atoms: _157  and  _158
REMARK   70  A    between atoms: _163  and  _165
REMARK   71  A    between atoms: _165  and  _166
REMARK   72  A    between atoms: _165  and  _168
REMARK   73  A    between atoms: _168  and  _169
REMARK   74  A    between atoms: _172  and  _174
REMARK   75  A    between atoms: _174  and  _175
REMARK   76  A    between atoms: _174  and  _177
REMARK   77  A    between atoms: _177  and  _178
REMARK   78  A    between atoms: _181  and  _183
REMARK   79  A    between atoms: _183  and  _184
REMARK   80  A    between atoms: _183  and  _186
REMARK   81  A    between atoms: _186  and  _187
REMARK   82  A    between atoms: _187  and  _188
REMARK   83  A    between atoms: _191  and  _193
REMARK   84  A    between atoms: _193  and  _194
REMARK   85  A    between atoms: _193  and  _196
REMARK   86  A    between atoms: _196  and  _197
REMARK   87  A    between atoms: _197  and  _198
REMARK   88  A    between atoms: _200  and  _202
REMARK   89  A    between atoms: _202  and  _203
REMARK   90  A    between atoms: _202  and  _205
REMARK   91  A    between atoms: _205  and  _206
REMARK   92  A    between atoms: _208  and  _210
REMARK   93  A    between atoms: _210  and  _211
REMARK   94  A    between atoms: _210  and  _213
REMARK   95  A    between atoms: _213  and  _214
REMARK   96  A    between atoms: _219  and  _221
REMARK   97  A    between atoms: _221  and  _222
REMARK   98  A    between atoms: _225  and  _227
REMARK   99  A    between atoms: _227  and  _228
REMARK  100  A    between atoms: _227  and  _230
REMARK  101  A    between atoms: _230  and  _231
REMARK  102  A    between atoms: _234  and  _236
REMARK  103  A    between atoms: _236  and  _237
REMARK  104  A    between atoms: _236  and  _239
REMARK  105  A    between atoms: _242  and  _244
REMARK  106  A    between atoms: _244  and  _245
REMARK  107  A    between atoms: _248  and  _249
REMARK  108  A    between atoms: _254  and  _256
REMARK  109  A    between atoms: _256  and  _257
REMARK  110  A    between atoms: _256  and  _259
REMARK  111  A    between atoms: _259  and  _260
REMARK  112  A    between atoms: _262  and  _264
REMARK  113  A    between atoms: _264  and  _265
REMARK  114  A    between atoms: _264  and  _267
REMARK  115  A    between atoms: _267  and  _268
REMARK  116  A    between atoms: _271  and  _273
REMARK  117  A    between atoms: _273  and  _274
REMARK  118  A    between atoms: _273  and  _276
REMARK  119  A    between atoms: _276  and  _277
REMARK  120  A    between atoms: _277  and  _278
REMARK  121  A    between atoms: _278  and  _279
REMARK  122  A    between atoms: _288  and  _290
REMARK  123  A    between atoms: _290  and  _291
REMARK  124  A    between atoms: _290  and  _293
REMARK  125  A    between atoms: _293  and  _294
REMARK  126  A    between atoms: _297  and  _299
REMARK  127  A    between atoms: _299  and  _300
REMARK  128  A    between atoms: _299  and  _302
REMARK  129  A    between atoms: _302  and  _303
REMARK  130  A    between atoms: _306  and  _307
REMARK  131  A    between atoms: _312  and  _314
REMARK  132  A    between atoms: _314  and  _315
REMARK  133  A    between atoms: _317  and  _319
REMARK  134  A    between atoms: _319  and  _320
REMARK  135  A    between atoms: _319  and  _322
REMARK  136  A    between atoms: _325  and  _327
REMARK  137  A    between atoms: _327  and  _328
REMARK  138  A    between atoms: _330  and  _332
REMARK  139  A    between atoms: _332  and  _333
REMARK  140  A    between atoms: _336  and  _338
REMARK  141  A    between atoms: _338  and  _339
REMARK  142  A    between atoms: _338  and  _341
REMARK  143  A    between atoms: _341  and  _342
REMARK  144  A    between atoms: _342  and  _343
REMARK  145  A    between atoms: _348  and  _350
REMARK  146  A    between atoms: _350  and  _351
REMARK  147  A    between atoms: _353  and  _355
REMARK  148  A    between atoms: _355  and  _356
REMARK  149  A    between atoms: _358  and  _360
REMARK  150  A    between atoms: _360  and  _361
REMARK  151  A    between atoms: _360  and  _363
REMARK  152  A    between atoms: _363  and  _364
REMARK  153  A    between atoms: _367  and  _369
REMARK  154  A    between atoms: _369  and  _370
REMARK  155  A    between atoms: _369  and  _372
REMARK  156  A    between atoms: _375  and  _377
REMARK  157  A    between atoms: _377  and  _378
REMARK  158  A    between atoms: _380  and  _382
REMARK  159  A    between atoms: _382  and  _383
REMARK  160  A    between atoms: _382  and  _385
REMARK  161  A    between atoms: _385  and  _386
REMARK  162  A    between atoms: _386  and  _387
REMARK  163  A    between atoms: _387  and  _388
REMARK  164  A    between atoms: _397  and  _399
REMARK  165  A    between atoms: _399  and  _400
REMARK  166  A    between atoms: _399  and  _402
REMARK  167  A    between atoms: _402  and  _403
REMARK  168  A    between atoms: _405  and  _407
REMARK  169  A    between atoms: _407  and  _408
REMARK  170  A    between atoms: _407  and  _410
REMARK  171  A    between atoms: _410  and  _411
REMARK  172  A    between atoms: _414  and  _416
REMARK  173  A    between atoms: _416  and  _417
REMARK  174  A    between atoms: _416  and  _419
REMARK  175  A    between atoms: _419  and  _420
REMARK  176  A    between atoms: _425  and  _426
REMARK  177  A    between atoms: _428  and  _430
REMARK  178  A    between atoms: _430  and  _431
REMARK  179  A    between atoms: _430  and  _433
REMARK  180  A    between atoms: _433  and  _434
REMARK  181  A    between atoms: _437  and  _439
REMARK  182  A    between atoms: _439  and  _440
REMARK  183  A    between atoms: _443  and  _445
REMARK  184  A    between atoms: _445  and  _446
REMARK  185  A    between atoms: _445  and  _448
REMARK  186  A    between atoms: _448  and  _449
REMARK  187  A    between atoms: _452  and  _454
REMARK  188  A    between atoms: _454  and  _455
REMARK  189  A    between atoms: _454  and  _457
REMARK  190  A    between atoms: _457  and  _458
REMARK  191  A    between atoms: _462  and  _463
REMARK  192  A    between atoms: _468  and  _470
REMARK  193  A    between atoms: _470  and  _471
REMARK  194  A    between atoms: _470  and  _473
REMARK  195  A    between atoms: _473  and  _474
REMARK  196  A    between atoms: _474  and  _475
REMARK  197  A    between atoms: _478  and  _480
REMARK  198  A    between atoms: _480  and  _481
REMARK  199  A    between atoms: _480  and  _483
REMARK  200  A    between atoms: _483  and  _484
REMARK  201  A    between atoms: _487  and  _489
REMARK  202  A    between atoms: _489  and  _490
REMARK  203  A    between atoms: _489  and  _492
REMARK  204  A    between atoms: _492  and  _493
REMARK  205  A    between atoms: _498  and  _500
REMARK  206  A    between atoms: _500  and  _501
REMARK  207  A    between atoms: _500  and  _503
REMARK  208  A    between atoms: _503  and  _504
REMARK  209  A    between atoms: _504  and  _505
REMARK  210  A    between atoms: _505  and  _506
REMARK  211  A    between atoms: _506  and  _507
REMARK  212  A    between atoms: _511  and  _513
REMARK  213  A    between atoms: _513  and  _514
REMARK  214  A    between atoms: _513  and  _516
REMARK  215  A    between atoms: _516  and  _517
REMARK                            x       y       z     vdW  Elec       q    Type
REMARK                         _______ _______ _______ _____ _____    ______ ____
ROOT
ATOM      1  CA  PHE A   2      21.448  48.440  33.160  0.00  0.00    +0.153 C 
ENDROOT
BRANCH   1   4
ATOM      2  C   ASP A   1      21.599  46.033  32.861  0.00  0.00    +0.239 C 
ATOM      3  O   ASP A   1      21.767  45.844  34.057  0.00  0.00    -0.274 OA
ATOM      4  N   PHE A   2      21.407  47.241  32.339  0.00  0.00    -0.297 N 
ATOM      5  H   PHE A   2      21.223  47.330  31.319  0.00  0.00    +0.150 HD
BRANCH   2   6
ATOM      6  CA  ASP A   1      21.621  44.910  31.869  0.00  0.00    +0.156 C 
BRANCH   6   7
ATOM      7  N   ASP A   1      22.900  44.898  31.181  0.00  0.00    -0.238 NA
ATOM      8  H   ASP A   1      23.696  44.360  31.579  0.00  0.00    +0.142 HD
ENDBRANCH   6   7
BRANCH   6   9
ATOM      9  CB  ASP A   1      21.360  43.590  32.556  0.00  0.00    +0.140 C 
BRANCH   9  10
ATOM     10  CG  ASP A   1      19.969  43.522  33.169  0.00  0.00    +0.367 C 
ATOM     11  OD2 ASP A   1      19.712  42.504  33.844  0.00  0.00    -0.246 OA
ATOM     12  OD1 ASP A   1      19.159  44.466  32.992  0.00  0.00    -0.246 OA
ENDBRANCH   9  10
ENDBRANCH   6   9
ENDBRANCH   2   6
ENDBRANCH   1   4
BRANCH   1  13
ATOM     13  C   PHE A   2      20.070  49.013  33.491  0.00  0.00    +0.241 C 
ATOM     14  O   PHE A   2      19.973  49.972  34.229  0.00  0.00    -0.273 OA
ATOM     15  N   LYS A   3      19.005  48.353  33.029  0.00  0.00    -0.298 N 
ATOM     16  H   LYS A   3      19.143  47.552  32.380  0.00  0.00    +0.150 HD
BRANCH  15  17
ATOM     17  CA  LYS A   3      17.637  48.739  33.423  0.00  0.00    +0.137 C 
BRANCH  17  18
ATOM     18  C   LYS A   3      17.448  50.262  33.377  0.00  0.00    +0.227 C 
ATOM     19  O   LYS A   3      16.964  50.864  34.301  0.00  0.00    -0.286 OA
ENDBRANCH  17  18
BRANCH  17  20
ATOM     20  CB  LYS A   3      17.318  48.126  34.786  0.00  0.00    +0.028 C 
BRANCH  20  21
ATOM     21  CG  LYS A   3      17.084  46.610  34.530  0.00  0.00    -0.000 C 
BRANCH  21  22
ATOM     22  CD  LYS A   3      16.481  45.894  35.688  0.00  0.00    -0.024 C 
BRANCH  22  23
ATOM     23  CE  LYS A   3      16.592  44.425  35.520  0.00  0.00    -0.086 C 
BRANCH  23  24
ATOM     24  NZ  LYS A   3      17.990  43.935  35.554  0.00  0.00    +0.380 N 
ATOM     25  HZ1 LYS A   3      18.420  44.180  36.469  0.00  0.00    -0.089 HD
ATOM     26  HZ2 LYS A   3      17.997  42.902  35.431  0.00  0.00    -0.089 HD
ATOM     27  HZ3 LYS A   3      18.531  44.380  34.786  0.00  0.00    -0.089 HD
ENDBRANCH  23  24
ENDBRANCH  22  23
ENDBRANCH  21  22
ENDBRANCH  20  21
ENDBRANCH  17  20
ENDBRANCH  15  17
ENDBRANCH   1  13
BRANCH   1  28
ATOM     28  CB  PHE A   2      22.314  49.503  32.470  0.00  0.00    +0.055 C 
BRANCH  28  29
ATOM     29  CG  PHE A   2      23.788  49.164  32.409  0.00  0.00    -0.020 A 
ATOM     30  CD2 PHE A   2      24.323  48.030  33.052  0.00  0.00    -0.004 A 
ATOM     31  CE2 PHE A   2      25.714  47.733  32.986  0.00  0.00    -0.000 A 
ATOM     32  CZ  PHE A   2      26.562  48.585  32.258  0.00  0.00    -0.000 A 
ATOM     33  CE1 PHE A   2      26.032  49.712  31.629  0.00  0.00    -0.000 A 
ATOM     34  CD1 PHE A   2      24.634  50.015  31.715  0.00  0.00    -0.004 A 
ENDBRANCH  28  29
ENDBRANCH   1  28
TORSDOF 15
REMARK  Name = ../refined-set-2016/3wjw/3wjw_pocket.pdb
REMARK  215 active torsions:
REMARK  status: ('A' for Active; 'I' for Inactive)
REMARK    1  A    between atoms: _1  and  _3
REMARK    2  A    between atoms: _3  and  _4
REMARK    3  A    between atoms: _3  and  _6
REMARK    4  A    between atoms: _6  and  _7
REMARK    5  A    between atoms: _10  and  _12
REMARK    6  A    between atoms: _12  and  _13
REMARK    7  A    between atoms: _12  and  _15
REMARK    8  A    between atoms: _15  and  _16
REMARK    9  A    between atoms: _19  and  _21
REMARK   10  A    between atoms: _21  and  _22
REMARK   11  A    between atoms: _25  and  _27
REMARK   12  A    between atoms: _27  and  _28
REMARK   13  A    between atoms: _27  and  _30
REMARK   14  A    between atoms: _30  and  _31
REMARK   15  A    between atoms: _31  and  _32
REMARK   16  A    between atoms: _34  and  _36
REMARK   17  A    between atoms: _36  and  _37
REMARK   18  A    between atoms: _36  and  _39
REMARK   19  A    between atoms: _39  and  _40
REMARK   20  A    between atoms: _43  and  _45
REMARK   21  A    between atoms: _45  and  _46
REMARK   22  A    between atoms: _45  and  _48
REMARK   23  A    between atoms: _48  and  _49
REMARK   24  A    between atoms: _49  and  _50
REMARK   25  A    between atoms: _50  and  _51
REMARK   26  A    between atoms: _51  and  _52
REMARK   27  A    between atoms: _56  and  _58
REMARK   28  A    between atoms: _58  and  _59
REMARK   29  A    between atoms: _58  and  _61
REMARK   30  A    between atoms: _61  and  _62
REMARK   31  A    between atoms: _65  and  _67
REMARK   32  A    between atoms: _67  and  _68
REMARK   33  A    between atoms: _70  and  _72
REMARK   34  A    between atoms: _72  and  _73
REMARK   35  A    between atoms: _72  and  _75
REMARK   36  A    between atoms: _75  and  _76
REMARK   37  A    between atoms: _81  and  _82
REMARK   38  A    between atoms: _85  and  _86
REMARK   39  A    between atoms: _91  and  _93
REMARK   40  A    between atoms: _93  and  _94
REMARK   41  A    between atoms: _93  and  _96
REMARK   42  A    between atoms: _96  and  _97
REMARK   43  A    between atoms: _100  and  _102
REMARK   44  A    between atoms: _102  and  _103
REMARK   45  A    between atoms: _102  and  _105
REMARK   46  A    between atoms: _105  and  _106
REMARK   47  A    between atoms: _109  and  _111
REMARK   48  A    between atoms: _111  and  _112
REMARK   49  A    between atoms: _111  and  _114
REMARK   50  A    between atoms: _114  and  _115
REMARK   51  A    between atoms: _118  and  _120
REMARK   52  A    between atoms: _120  and  _121
REMARK   53  A    between atoms: _120  and  _123
REMARK   54  A    between atoms: _123  and  _124
REMARK   55  A    between atoms: _130  and  _132
REMARK   56  A    between atoms: _132  and  _133
REMARK   57  A    between atoms: _132  and  _135
REMARK   58  A    between atoms: _135  and  _136
REMARK   59  A    between atoms: _136  and  _137
REMARK   60  A    between atoms: _137  and  _138
REMARK   61  A    between atoms: _138  and  _139
REMARK   62  A    between atoms: _143  and  _145
REMARK   63  A    between atoms: _145  and  _146
REMARK   64  A    between atoms: _145  and  _148
REMARK   65  A    between atoms: _148  and  _149
REMARK   66  A    between atoms: _152  and  _154
REMARK   67  A    between atoms: _154  and  _155
REMARK   68  A    between atoms: _154  and  _157
REMARK   69  A    between atoms: _157  and  _158
REMARK   70  A    between atoms: _163  and  _165
REMARK   71  A    between atoms: _165  and  _166
REMARK   72  A    between atoms: _165  and  _168
REMARK   73  A    between atoms: _168  and  _169
REMARK   74  A    between atoms: _172  and  _174
REMARK   75  A    between atoms: _174  and  _175
REMARK   76  A    between atoms: _174  and  _177
REMARK   77  A    between atoms: _177  and  _178
REMARK   78  A    between atoms: _181  and  _183
REMARK   79  A    between atoms: _183  and  _184
REMARK   80  A    between atoms: _183  and  _186
REMARK   81  A    between atoms: _186  and  _187
REMARK   82  A    between atoms: _187  and  _188
REMARK   83  A    between atoms: _191  and  _193
REMARK   84  A    between atoms: _193  and  _194
REMARK   85  A    between atoms: _193  and  _196
REMARK   86  A    between atoms: _196  and  _197
REMARK   87  A    between atoms: _197  and  _198
REMARK   88  A    between atoms: _200  and  _202
REMARK   89  A    between atoms: _202  and  _203
REMARK   90  A    between atoms: _202  and  _205
REMARK   91  A    between atoms: _205  and  _206
REMARK   92  A    between atoms: _208  and  _210
REMARK   93  A    between atoms: _210  and  _211
REMARK   94  A    between atoms: _210  and  _213
REMARK   95  A    between atoms: _213  and  _214
REMARK   96  A    between atoms: _219  and  _221
REMARK   97  A    between atoms: _221  and  _222
REMARK   98  A    between atoms: _225  and  _227
REMARK   99  A    between atoms: _227  and  _228
REMARK  100  A    between atoms: _227  and  _230
REMARK  101  A    between atoms: _230  and  _231
REMARK  102  A    between atoms: _234  and  _236
REMARK  103  A    between atoms: _236  and  _237
REMARK  104  A    between atoms: _236  and  _239
REMARK  105  A    between atoms: _242  and  _244
REMARK  106  A    between atoms: _244  and  _245
REMARK  107  A    between atoms: _248  and  _249
REMARK  108  A    between atoms: _254  and  _256
REMARK  109  A    between atoms: _256  and  _257
REMARK  110  A    between atoms: _256  and  _259
REMARK  111  A    between atoms: _259  and  _260
REMARK  112  A    between atoms: _262  and  _264
REMARK  113  A    between atoms: _264  and  _265
REMARK  114  A    between atoms: _264  and  _267
REMARK  115  A    between atoms: _267  and  _268
REMARK  116  A    between atoms: _271  and  _273
REMARK  117  A    between atoms: _273  and  _274
REMARK  118  A    between atoms: _273  and  _276
REMARK  119  A    between atoms: _276  and  _277
REMARK  120  A    between atoms: _277  and  _278
REMARK  121  A    between atoms: _278  and  _279
REMARK  122  A    between atoms: _288  and  _290
REMARK  123  A    between atoms: _290  and  _291
REMARK  124  A    between atoms: _290  and  _293
REMARK  125  A    between atoms: _293  and  _294
REMARK  126  A    between atoms: _297  and  _299
REMARK  127  A    between atoms: _299  and  _300
REMARK  128  A    between atoms: _299  and  _302
REMARK  129  A    between atoms: _302  and  _303
REMARK  130  A    between atoms: _306  and  _307
REMARK  131  A    between atoms: _312  and  _314
REMARK  132  A    between atoms: _314  and  _315
REMARK  133  A    between atoms: _317  and  _319
REMARK  134  A    between atoms: _319  and  _320
REMARK  135  A    between atoms: _319  and  _322
REMARK  136  A    between atoms: _325  and  _327
REMARK  137  A    between atoms: _327  and  _328
REMARK  138  A    between atoms: _330  and  _332
REMARK  139  A    between atoms: _332  and  _333
REMARK  140  A    between atoms: _336  and  _338
REMARK  141  A    between atoms: _338  and  _339
REMARK  142  A    between atoms: _338  and  _341
REMARK  143  A    between atoms: _341  and  _342
REMARK  144  A    between atoms: _342  and  _343
REMARK  145  A    between atoms: _348  and  _350
REMARK  146  A    between atoms: _350  and  _351
REMARK  147  A    between atoms: _353  and  _355
REMARK  148  A    between atoms: _355  and  _356
REMARK  149  A    between atoms: _358  and  _360
REMARK  150  A    between atoms: _360  and  _361
REMARK  151  A    between atoms: _360  and  _363
REMARK  152  A    between atoms: _363  and  _364
REMARK  153  A    between atoms: _367  and  _369
REMARK  154  A    between atoms: _369  and  _370
REMARK  155  A    between atoms: _369  and  _372
REMARK  156  A    between atoms: _375  and  _377
REMARK  157  A    between atoms: _377  and  _378
REMARK  158  A    between atoms: _380  and  _382
REMARK  159  A    between atoms: _382  and  _383
REMARK  160  A    between atoms: _382  and  _385
REMARK  161  A    between atoms: _385  and  _386
REMARK  162  A    between atoms: _386  and  _387
REMARK  163  A    between atoms: _387  and  _388
REMARK  164  A    between atoms: _397  and  _399
REMARK  165  A    between atoms: _399  and  _400
REMARK  166  A    between atoms: _399  and  _402
REMARK  167  A    between atoms: _402  and  _403
REMARK  168  A    between atoms: _405  and  _407
REMARK  169  A    between atoms: _407  and  _408
REMARK  170  A    between atoms: _407  and  _410
REMARK  171  A    between atoms: _410  and  _411
REMARK  172  A    between atoms: _414  and  _416
REMARK  173  A    between atoms: _416  and  _417
REMARK  174  A    between atoms: _416  and  _419
REMARK  175  A    between atoms: _419  and  _420
REMARK  176  A    between atoms: _425  and  _426
REMARK  177  A    between atoms: _428  and  _430
REMARK  178  A    between atoms: _430  and  _431
REMARK  179  A    between atoms: _430  and  _433
REMARK  180  A    between atoms: _433  and  _434
REMARK  181  A    between atoms: _437  and  _439
REMARK  182  A    between atoms: _439  and  _440
REMARK  183  A    between atoms: _443  and  _445
REMARK  184  A    between atoms: _445  and  _446
REMARK  185  A    between atoms: _445  and  _448
REMARK  186  A    between atoms: _448  and  _449
REMARK  187  A    between atoms: _452  and  _454
REMARK  188  A    between atoms: _454  and  _455
REMARK  189  A    between atoms: _454  and  _457
REMARK  190  A    between atoms: _457  and  _458
REMARK  191  A    between atoms: _462  and  _463
REMARK  192  A    between atoms: _468  and  _470
REMARK  193  A    between atoms: _470  and  _471
REMARK  194  A    between atoms: _470  and  _473
REMARK  195  A    between atoms: _473  and  _474
REMARK  196  A    between atoms: _474  and  _475
REMARK  197  A    between atoms: _478  and  _480
REMARK  198  A    between atoms: _480  and  _481
REMARK  199  A    between atoms: _480  and  _483
REMARK  200  A    between atoms: _483  and  _484
REMARK  201  A    between atoms: _487  and  _489
REMARK  202  A    between atoms: _489  and  _490
REMARK  203  A    between atoms: _489  and  _492
REMARK  204  A    between atoms: _492  and  _493
REMARK  205  A    between atoms: _498  and  _500
REMARK  206  A    between atoms: _500  and  _501
REMARK  207  A    between atoms: _500  and  _503
REMARK  208  A    between atoms: _503  and  _504
REMARK  209  A    between atoms: _504  and  _505
REMARK  210  A    between atoms: _505  and  _506
REMARK  211  A    between atoms: _506  and  _507
REMARK  212  A    between atoms: _511  and  _513
REMARK  213  A    between atoms: _513  and  _514
REMARK  214  A    between atoms: _513  and  _516
REMARK  215  A    between atoms: _516  and  _517
REMARK                            x       y       z     vdW  Elec       q    Type
REMARK                         _______ _______ _______ _____ _____    ______ ____
ROOT
ATOM      1  CA  ILE A   1      18.233  46.660  28.629  0.00  0.00    +0.133 C 
ENDROOT
BRANCH   1   2
ATOM      2  N   ILE A   1      19.593  46.850  28.139  0.00  0.00    -0.239 NA
ATOM      3  H   ILE A   1      20.388  46.687  28.790  0.00  0.00    +0.142 HD
ENDBRANCH   1   2
BRANCH   1   4
ATOM      4  CB  ILE A   1      18.162  45.523  29.651  0.00  0.00    +0.023 C 
ATOM      5  CG2 ILE A   1      16.738  45.446  30.267  0.00  0.00    +0.002 C 
BRANCH   4   6
ATOM      6  CG1 ILE A   1      18.530  44.209  28.950  0.00  0.00    +0.002 C 
ATOM      7  CD1 ILE A   1      18.636  42.985  29.871  0.00  0.00    +0.000 C 
ENDBRANCH   4   6
ENDBRANCH   1   4
BRANCH   1   8
ATOM      8  C   ILE A   1      17.754  47.959  29.247  0.00  0.00    +0.224 C 
ATOM      9  O   ILE A   1      18.435  48.576  30.091  0.00  0.00    -0.287 OA
ENDBRANCH   1   8
TORSDOF 4
REMARK  Name = ../refined-set-2016/3wjw/3wjw_pocket.pdb
REMARK  215 active torsions:
REMARK  status: ('A' for Active; 'I' for Inactive)
REMARK    1  A    between atoms: _1  and  _3
REMARK    2  A    between atoms: _3  and  _4
REMARK    3  A    between atoms: _3  and  _6
REMARK    4  A    between atoms: _6  and  _7
REMARK    5  A    between atoms: _10  and  _12
REMARK    6  A    between atoms: _12  and  _13
REMARK    7  A    between atoms: _12  and  _15
REMARK    8  A    between atoms: _15  and  _16
REMARK    9  A    between atoms: _19  and  _21
REMARK   10  A    between atoms: _21  and  _22
REMARK   11  A    between atoms: _25  and  _27
REMARK   12  A    between atoms: _27  and  _28
REMARK   13  A    between atoms: _27  and  _30
REMARK   14  A    between atoms: _30  and  _31
REMARK   15  A    between atoms: _31  and  _32
REMARK   16  A    between atoms: _34  and  _36
REMARK   17  A    between atoms: _36  and  _37
REMARK   18  A    between atoms: _36  and  _39
REMARK   19  A    between atoms: _39  and  _40
REMARK   20  A    between atoms: _43  and  _45
REMARK   21  A    between atoms: _45  and  _46
REMARK   22  A    between atoms: _45  and  _48
REMARK   23  A    between atoms: _48  and  _49
REMARK   24  A    between atoms: _49  and  _50
REMARK   25  A    between atoms: _50  and  _51
REMARK   26  A    between atoms: _51  and  _52
REMARK   27  A    between atoms: _56  and  _58
REMARK   28  A    between atoms: _58  and  _59
REMARK   29  A    between atoms: _58  and  _61
REMARK   30  A    between atoms: _61  and  _62
REMARK   31  A    between atoms: _65  and  _67
REMARK   32  A    between atoms: _67  and  _68
REMARK   33  A    between atoms: _70  and  _72
REMARK   34  A    between atoms: _72  and  _73
REMARK   35  A    between atoms: _72  and  _75
REMARK   36  A    between atoms: _75  and  _76
REMARK   37  A    between atoms: _81  and  _82
REMARK   38  A    between atoms: _85  and  _86
REMARK   39  A    between atoms: _91  and  _93
REMARK   40  A    between atoms: _93  and  _94
REMARK   41  A    between atoms: _93  and  _96
REMARK   42  A    between atoms: _96  and  _97
REMARK   43  A    between atoms: _100  and  _102
REMARK   44  A    between atoms: _102  and  _103
REMARK   45  A    between atoms: _102  and  _105
REMARK   46  A    between atoms: _105  and  _106
REMARK   47  A    between atoms: _109  and  _111
REMARK   48  A    between atoms: _111  and  _112
REMARK   49  A    between atoms: _111  and  _114
REMARK   50  A    between atoms: _114  and  _115
REMARK   51  A    between atoms: _118  and  _120
REMARK   52  A    between atoms: _120  and  _121
REMARK   53  A    between atoms: _120  and  _123
REMARK   54  A    between atoms: _123  and  _124
REMARK   55  A    between atoms: _130  and  _132
REMARK   56  A    between atoms: _132  and  _133
REMARK   57  A    between atoms: _132  and  _135
REMARK   58  A    between atoms: _135  and  _136
REMARK   59  A    between atoms: _136  and  _137
REMARK   60  A    between atoms: _137  and  _138
REMARK   61  A    between atoms: _138  and  _139
REMARK   62  A    between atoms: _143  and  _145
REMARK   63  A    between atoms: _145  and  _146
REMARK   64  A    between atoms: _145  and  _148
REMARK   65  A    between atoms: _148  and  _149
REMARK   66  A    between atoms: _152  and  _154
REMARK   67  A    between atoms: _154  and  _155
REMARK   68  A    between atoms: _154  and  _157
REMARK   69  A    between atoms: _157  and  _158
REMARK   70  A    between atoms: _163  and  _165
REMARK   71  A    between atoms: _165  and  _166
REMARK   72  A    between atoms: _165  and  _168
REMARK   73  A    between atoms: _168  and  _169
REMARK   74  A    between atoms: _172  and  _174
REMARK   75  A    between atoms: _174  and  _175
REMARK   76  A    between atoms: _174  and  _177
REMARK   77  A    between atoms: _177  and  _178
REMARK   78  A    between atoms: _181  and  _183
REMARK   79  A    between atoms: _183  and  _184
REMARK   80  A    between atoms: _183  and  _186
REMARK   81  A    between atoms: _186  and  _187
REMARK   82  A    between atoms: _187  and  _188
REMARK   83  A    between atoms: _191  and  _193
REMARK   84  A    between atoms: _193  and  _194
REMARK   85  A    between atoms: _193  and  _196
REMARK   86  A    between atoms: _196  and  _197
REMARK   87  A    between atoms: _197  and  _198
REMARK   88  A    between atoms: _200  and  _202
REMARK   89  A    between atoms: _202  and  _203
REMARK   90  A    between atoms: _202  and  _205
REMARK   91  A    between atoms: _205  and  _206
REMARK   92  A    between atoms: _208  and  _210
REMARK   93  A    between atoms: _210  and  _211
REMARK   94  A    between atoms: _210  and  _213
REMARK   95  A    between atoms: _213  and  _214
REMARK   96  A    between atoms: _219  and  _221
REMARK   97  A    between atoms: _221  and  _222
REMARK   98  A    between atoms: _225  and  _227
REMARK   99  A    between atoms: _227  and  _228
REMARK  100  A    between atoms: _227  and  _230
REMARK  101  A    between atoms: _230  and  _231
REMARK  102  A    between atoms: _234  and  _236
REMARK  103  A    between atoms: _236  and  _237
REMARK  104  A    between atoms: _236  and  _239
REMARK  105  A    between atoms: _242  and  _244
REMARK  106  A    between atoms: _244  and  _245
REMARK  107  A    between atoms: _248  and  _249
REMARK  108  A    between atoms: _254  and  _256
REMARK  109  A    between atoms: _256  and  _257
REMARK  110  A    between atoms: _256  and  _259
REMARK  111  A    between atoms: _259  and  _260
REMARK  112  A    between atoms: _262  and  _264
REMARK  113  A    between atoms: _264  and  _265
REMARK  114  A    between atoms: _264  and  _267
REMARK  115  A    between atoms: _267  and  _268
REMARK  116  A    between atoms: _271  and  _273
REMARK  117  A    between atoms: _273  and  _274
REMARK  118  A    between atoms: _273  and  _276
REMARK  119  A    between atoms: _276  and  _277
REMARK  120  A    between atoms: _277  and  _278
REMARK  121  A    between atoms: _278  and  _279
REMARK  122  A    between atoms: _288  and  _290
REMARK  123  A    between atoms: _290  and  _291
REMARK  124  A    between atoms: _290  and  _293
REMARK  125  A    between atoms: _293  and  _294
REMARK  126  A    between atoms: _297  and  _299
REMARK  127  A    between atoms: _299  and  _300
REMARK  128  A    between atoms: _299  and  _302
REMARK  129  A    between atoms: _302  and  _303
REMARK  130  A    between atoms: _306  and  _307
REMARK  131  A    between atoms: _312  and  _314
REMARK  132  A    between atoms: _314  and  _315
REMARK  133  A    between atoms: _317  and  _319
REMARK  134  A    between atoms: _319  and  _320
REMARK  135  A    between atoms: _319  and  _322
REMARK  136  A    between atoms: _325  and  _327
REMARK  137  A    between atoms: _327  and  _328
REMARK  138  A    between atoms: _330  and  _332
REMARK  139  A    between atoms: _332  and  _333
REMARK  140  A    between atoms: _336  and  _338
REMARK  141  A    between atoms: _338  and  _339
REMARK  142  A    between atoms: _338  and  _341
REMARK  143  A    between atoms: _341  and  _342
REMARK  144  A    between atoms: _342  and  _343
REMARK  145  A    between atoms: _348  and  _350
REMARK  146  A    between atoms: _350  and  _351
REMARK  147  A    between atoms: _353  and  _355
REMARK  148  A    between atoms: _355  and  _356
REMARK  149  A    between atoms: _358  and  _360
REMARK  150  A    between atoms: _360  and  _361
REMARK  151  A    between atoms: _360  and  _363
REMARK  152  A    between atoms: _363  and  _364
REMARK  153  A    between atoms: _367  and  _369
REMARK  154  A    between atoms: _369  and  _370
REMARK  155  A    between atoms: _369  and  _372
REMARK  156  A    between atoms: _375  and  _377
REMARK  157  A    between atoms: _377  and  _378
REMARK  158  A    between atoms: _380  and  _382
REMARK  159  A    between atoms: _382  and  _383
REMARK  160  A    between atoms: _382  and  _385
REMARK  161  A    between atoms: _385  and  _386
REMARK  162  A    between atoms: _386  and  _387
REMARK  163  A    between atoms: _387  and  _388
REMARK  164  A    between atoms: _397  and  _399
REMARK  165  A    between atoms: _399  and  _400
REMARK  166  A    between atoms: _399  and  _402
REMARK  167  A    between atoms: _402  and  _403
REMARK  168  A    between atoms: _405  and  _407
REMARK  169  A    between atoms: _407  and  _408
REMARK  170  A    between atoms: _407  and  _410
REMARK  171  A    between atoms: _410  and  _411
REMARK  172  A    between atoms: _414  and  _416
REMARK  173  A    between atoms: _416  and  _417
REMARK  174  A    between atoms: _416  and  _419
REMARK  175  A    between atoms: _419  and  _420
REMARK  176  A    between atoms: _425  and  _426
REMARK  177  A    between atoms: _428  and  _430
REMARK  178  A    between atoms: _430  and  _431
REMARK  179  A    between atoms: _430  and  _433
REMARK  180  A    between atoms: _433  and  _434
REMARK  181  A    between atoms: _437  and  _439
REMARK  182  A    between atoms: _439  and  _440
REMARK  183  A    between atoms: _443  and  _445
REMARK  184  A    between atoms: _445  and  _446
REMARK  185  A    between atoms: _445  and  _448
REMARK  186  A    between atoms: _448  and  _449
REMARK  187  A    between atoms: _452  and  _454
REMARK  188  A    between atoms: _454  and  _455
REMARK  189  A    between atoms: _454  and  _457
REMARK  190  A    between atoms: _457  and  _458
REMARK  191  A    between atoms: _462  and  _463
REMARK  192  A    between atoms: _468  and  _470
REMARK  193  A    between atoms: _470  and  _471
REMARK  194  A    between atoms: _470  and  _473
REMARK  195  A    between atoms: _473  and  _474
REMARK  196  A    between atoms: _474  and  _475
REMARK  197  A    between atoms: _478  and  _480
REMARK  198  A    between atoms: _480  and  _481
REMARK  199  A    between atoms: _480  and  _483
REMARK  200  A    between atoms: _483  and  _484
REMARK  201  A    between atoms: _487  and  _489
REMARK  202  A    between atoms: _489  and  _490
REMARK  203  A    between atoms: _489  and  _492
REMARK  204  A    between atoms: _492  and  _493
REMARK  205  A    between atoms: _498  and  _500
REMARK  206  A    between atoms: _500  and  _501
REMARK  207  A    between atoms: _500  and  _503
REMARK  208  A    between atoms: _503  and  _504
REMARK  209  A    between atoms: _504  and  _505
REMARK  210  A    between atoms: _505  and  _506
REMARK  211  A    between atoms: _506  and  _507
REMARK  212  A    between atoms: _511  and  _513
REMARK  213  A    between atoms: _513  and  _514
REMARK  214  A    between atoms: _513  and  _516
REMARK  215  A    between atoms: _516  and  _517
REMARK                            x       y       z     vdW  Elec       q    Type
REMARK                         _______ _______ _______ _____ _____    ______ ____
ROOT
ATOM      1  CB  HIS A   1      12.840  50.622  32.829  0.00  0.00    +0.072 C 
ENDROOT
BRANCH   1   2
ATOM      2  CG  HIS A   1      12.964  49.640  33.944  0.00  0.00    +0.082 A 
ATOM      3  CD2 HIS A   1      13.907  49.491  34.916  0.00  0.00    +0.115 A 
ATOM      4  NE2 HIS A   1      13.493  48.452  35.720  0.00  0.00    -0.221 NA
ATOM      5  CE1 HIS A   1      12.334  47.989  35.260  0.00  0.00    +0.199 A 
ATOM      6  ND1 HIS A   1      11.998  48.678  34.175  0.00  0.00    -0.227 NA
ENDBRANCH   1   2
BRANCH   1   7
ATOM      7  CA  HIS A   1      12.873  50.010  31.427  0.00  0.00    +0.139 C 
BRANCH   7   8
ATOM      8  N   HIS A   1      14.268  50.078  30.906  0.00  0.00    -0.239 NA
ATOM      9  H   HIS A   1      14.988  50.646  31.397  0.00  0.00    +0.142 HD
ENDBRANCH   7   8
BRANCH   7  10
ATOM     10  C   HIS A   1      11.915  50.804  30.573  0.00  0.00    +0.224 C 
ATOM     11  O   HIS A   1      12.219  51.901  30.108  0.00  0.00    -0.287 OA
ENDBRANCH   7  10
ENDBRANCH   1   7
TORSDOF 4
REMARK  Name = ../refined-set-2016/3wjw/3wjw_pocket.pdb
REMARK  215 active torsions:
REMARK  status: ('A' for Active; 'I' for Inactive)
REMARK    1  A    between atoms: _1  and  _3
REMARK    2  A    between atoms: _3  and  _4
REMARK    3  A    between atoms: _3  and  _6
REMARK    4  A    between atoms: _6  and  _7
REMARK    5  A    between atoms: _10  and  _12
REMARK    6  A    between atoms: _12  and  _13
REMARK    7  A    between atoms: _12  and  _15
REMARK    8  A    between atoms: _15  and  _16
REMARK    9  A    between atoms: _19  and  _21
REMARK   10  A    between atoms: _21  and  _22
REMARK   11  A    between atoms: _25  and  _27
REMARK   12  A    between atoms: _27  and  _28
REMARK   13  A    between atoms: _27  and  _30
REMARK   14  A    between atoms: _30  and  _31
REMARK   15  A    between atoms: _31  and  _32
REMARK   16  A    between atoms: _34  and  _36
REMARK   17  A    between atoms: _36  and  _37
REMARK   18  A    between atoms: _36  and  _39
REMARK   19  A    between atoms: _39  and  _40
REMARK   20  A    between atoms: _43  and  _45
REMARK   21  A    between atoms: _45  and  _46
REMARK   22  A    between atoms: _45  and  _48
REMARK   23  A    between atoms: _48  and  _49
REMARK   24  A    between atoms: _49  and  _50
REMARK   25  A    between atoms: _50  and  _51
REMARK   26  A    between atoms: _51  and  _52
REMARK   27  A    between atoms: _56  and  _58
REMARK   28  A    between atoms: _58  and  _59
REMARK   29  A    between atoms: _58  and  _61
REMARK   30  A    between atoms: _61  and  _62
REMARK   31  A    between atoms: _65  and  _67
REMARK   32  A    between atoms: _67  and  _68
REMARK   33  A    between atoms: _70  and  _72
REMARK   34  A    between atoms: _72  and  _73
REMARK   35  A    between atoms: _72  and  _75
REMARK   36  A    between atoms: _75  and  _76
REMARK   37  A    between atoms: _81  and  _82
REMARK   38  A    between atoms: _85  and  _86
REMARK   39  A    between atoms: _91  and  _93
REMARK   40  A    between atoms: _93  and  _94
REMARK   41  A    between atoms: _93  and  _96
REMARK   42  A    between atoms: _96  and  _97
REMARK   43  A    between atoms: _100  and  _102
REMARK   44  A    between atoms: _102  and  _103
REMARK   45  A    between atoms: _102  and  _105
REMARK   46  A    between atoms: _105  and  _106
REMARK   47  A    between atoms: _109  and  _111
REMARK   48  A    between atoms: _111  and  _112
REMARK   49  A    between atoms: _111  and  _114
REMARK   50  A    between atoms: _114  and  _115
REMARK   51  A    between atoms: _118  and  _120
REMARK   52  A    between atoms: _120  and  _121
REMARK   53  A    between atoms: _120  and  _123
REMARK   54  A    between atoms: _123  and  _124
REMARK   55  A    between atoms: _130  and  _132
REMARK   56  A    between atoms: _132  and  _133
REMARK   57  A    between atoms: _132  and  _135
REMARK   58  A    between atoms: _135  and  _136
REMARK   59  A    between atoms: _136  and  _137
REMARK   60  A    between atoms: _137  and  _138
REMARK   61  A    between atoms: _138  and  _139
REMARK   62  A    between atoms: _143  and  _145
REMARK   63  A    between atoms: _145  and  _146
REMARK   64  A    between atoms: _145  and  _148
REMARK   65  A    between atoms: _148  and  _149
REMARK   66  A    between atoms: _152  and  _154
REMARK   67  A    between atoms: _154  and  _155
REMARK   68  A    between atoms: _154  and  _157
REMARK   69  A    between atoms: _157  and  _158
REMARK   70  A    between atoms: _163  and  _165
REMARK   71  A    between atoms: _165  and  _166
REMARK   72  A    between atoms: _165  and  _168
REMARK   73  A    between atoms: _168  and  _169
REMARK   74  A    between atoms: _172  and  _174
REMARK   75  A    between atoms: _174  and  _175
REMARK   76  A    between atoms: _174  and  _177
REMARK   77  A    between atoms: _177  and  _178
REMARK   78  A    between atoms: _181  and  _183
REMARK   79  A    between atoms: _183  and  _184
REMARK   80  A    between atoms: _183  and  _186
REMARK   81  A    between atoms: _186  and  _187
REMARK   82  A    between atoms: _187  and  _188
REMARK   83  A    between atoms: _191  and  _193
REMARK   84  A    between atoms: _193  and  _194
REMARK   85  A    between atoms: _193  and  _196
REMARK   86  A    between atoms: _196  and  _197
REMARK   87  A    between atoms: _197  and  _198
REMARK   88  A    between atoms: _200  and  _202
REMARK   89  A    between atoms: _202  and  _203
REMARK   90  A    between atoms: _202  and  _205
REMARK   91  A    between atoms: _205  and  _206
REMARK   92  A    between atoms: _208  and  _210
REMARK   93  A    between atoms: _210  and  _211
REMARK   94  A    between atoms: _210  and  _213
REMARK   95  A    between atoms: _213  and  _214
REMARK   96  A    between atoms: _219  and  _221
REMARK   97  A    between atoms: _221  and  _222
REMARK   98  A    between atoms: _225  and  _227
REMARK   99  A    between atoms: _227  and  _228
REMARK  100  A    between atoms: _227  and  _230
REMARK  101  A    between atoms: _230  and  _231
REMARK  102  A    between atoms: _234  and  _236
REMARK  103  A    between atoms: _236  and  _237
REMARK  104  A    between atoms: _236  and  _239
REMARK  105  A    between atoms: _242  and  _244
REMARK  106  A    between atoms: _244  and  _245
REMARK  107  A    between atoms: _248  and  _249
REMARK  108  A    between atoms: _254  and  _256
REMARK  109  A    between atoms: _256  and  _257
REMARK  110  A    between atoms: _256  and  _259
REMARK  111  A    between atoms: _259  and  _260
REMARK  112  A    between atoms: _262  and  _264
REMARK  113  A    between atoms: _264  and  _265
REMARK  114  A    between atoms: _264  and  _267
REMARK  115  A    between atoms: _267  and  _268
REMARK  116  A    between atoms: _271  and  _273
REMARK  117  A    between atoms: _273  and  _274
REMARK  118  A    between atoms: _273  and  _276
REMARK  119  A    between atoms: _276  and  _277
REMARK  120  A    between atoms: _277  and  _278
REMARK  121  A    between atoms: _278  and  _279
REMARK  122  A    between atoms: _288  and  _290
REMARK  123  A    between atoms: _290  and  _291
REMARK  124  A    between atoms: _290  and  _293
REMARK  125  A    between atoms: _293  and  _294
REMARK  126  A    between atoms: _297  and  _299
REMARK  127  A    between atoms: _299  and  _300
REMARK  128  A    between atoms: _299  and  _302
REMARK  129  A    between atoms: _302  and  _303
REMARK  130  A    between atoms: _306  and  _307
REMARK  131  A    between atoms: _312  and  _314
REMARK  132  A    between atoms: _314  and  _315
REMARK  133  A    between atoms: _317  and  _319
REMARK  134  A    between atoms: _319  and  _320
REMARK  135  A    between atoms: _319  and  _322
REMARK  136  A    between atoms: _325  and  _327
REMARK  137  A    between atoms: _327  and  _328
REMARK  138  A    between atoms: _330  and  _332
REMARK  139  A    between atoms: _332  and  _333
REMARK  140  A    between atoms: _336  and  _338
REMARK  141  A    between atoms: _338  and  _339
REMARK  142  A    between atoms: _338  and  _341
REMARK  143  A    between atoms: _341  and  _342
REMARK  144  A    between atoms: _342  and  _343
REMARK  145  A    between atoms: _348  and  _350
REMARK  146  A    between atoms: _350  and  _351
REMARK  147  A    between atoms: _353  and  _355
REMARK  148  A    between atoms: _355  and  _356
REMARK  149  A    between atoms: _358  and  _360
REMARK  150  A    between atoms: _360  and  _361
REMARK  151  A    between atoms: _360  and  _363
REMARK  152  A    between atoms: _363  and  _364
REMARK  153  A    between atoms: _367  and  _369
REMARK  154  A    between atoms: _369  and  _370
REMARK  155  A    between atoms: _369  and  _372
REMARK  156  A    between atoms: _375  and  _377
REMARK  157  A    between atoms: _377  and  _378
REMARK  158  A    between atoms: _380  and  _382
REMARK  159  A    between atoms: _382  and  _383
REMARK  160  A    between atoms: _382  and  _385
REMARK  161  A    between atoms: _385  and  _386
REMARK  162  A    between atoms: _386  and  _387
REMARK  163  A    between atoms: _387  and  _388
REMARK  164  A    between atoms: _397  and  _399
REMARK  165  A    between atoms: _399  and  _400
REMARK  166  A    between atoms: _399  and  _402
REMARK  167  A    between atoms: _402  and  _403
REMARK  168  A    between atoms: _405  and  _407
REMARK  169  A    between atoms: _407  and  _408
REMARK  170  A    between atoms: _407  and  _410
REMARK  171  A    between atoms: _410  and  _411
REMARK  172  A    between atoms: _414  and  _416
REMARK  173  A    between atoms: _416  and  _417
REMARK  174  A    between atoms: _416  and  _419
REMARK  175  A    between atoms: _419  and  _420
REMARK  176  A    between atoms: _425  and  _426
REMARK  177  A    between atoms: _428  and  _430
REMARK  178  A    between atoms: _430  and  _431
REMARK  179  A    between atoms: _430  and  _433
REMARK  180  A    between atoms: _433  and  _434
REMARK  181  A    between atoms: _437  and  _439
REMARK  182  A    between atoms: _439  and  _440
REMARK  183  A    between atoms: _443  and  _445
REMARK  184  A    between atoms: _445  and  _446
REMARK  185  A    between atoms: _445  and  _448
REMARK  186  A    between atoms: _448  and  _449
REMARK  187  A    between atoms: _452  and  _454
REMARK  188  A    between atoms: _454  and  _455
REMARK  189  A    between atoms: _454  and  _457
REMARK  190  A    between atoms: _457  and  _458
REMARK  191  A    between atoms: _462  and  _463
REMARK  192  A    between atoms: _468  and  _470
REMARK  193  A    between atoms: _470  and  _471
REMARK  194  A    between atoms: _470  and  _473
REMARK  195  A    between atoms: _473  and  _474
REMARK  196  A    between atoms: _474  and  _475
REMARK  197  A    between atoms: _478  and  _480
REMARK  198  A    between atoms: _480  and  _481
REMARK  199  A    between atoms: _480  and  _483
REMARK  200  A    between atoms: _483  and  _484
REMARK  201  A    between atoms: _487  and  _489
REMARK  202  A    between atoms: _489  and  _490
REMARK  203  A    between atoms: _489  and  _492
REMARK  204  A    between atoms: _492  and  _493
REMARK  205  A    between atoms: _498  and  _500
REMARK  206  A    between atoms: _500  and  _501
REMARK  207  A    between atoms: _500  and  _503
REMARK  208  A    between atoms: _503  and  _504
REMARK  209  A    between atoms: _504  and  _505
REMARK  210  A    between atoms: _505  and  _506
REMARK  211  A    between atoms: _506  and  _507
REMARK  212  A    between atoms: _511  and  _513
REMARK  213  A    between atoms: _513  and  _514
REMARK  214  A    between atoms: _513  and  _516
REMARK  215  A    between atoms: _516  and  _517
REMARK                            x       y       z     vdW  Elec       q    Type
REMARK                         _______ _______ _______ _____ _____    ______ ____
ROOT
ATOM      1  C   GLU A   3       8.371  42.404  33.723  0.00  0.00    +0.241 C 
ATOM      2  N   MET A   4       8.526  42.608  35.032  0.00  0.00    -0.297 N 
ATOM      3  H   MET A   4       7.839  43.202  35.539  0.00  0.00    +0.150 HD
ATOM      4  O   GLU A   3       9.093  41.660  33.070  0.00  0.00    -0.273 OA
ENDROOT
BRANCH   2   5
ATOM      5  CA  MET A   4       9.648  42.012  35.776  0.00  0.00    +0.149 C 
BRANCH   5   6
ATOM      6  C   MET A   4       9.228  40.695  36.403  0.00  0.00    +0.241 C 
ATOM      7  N   SER A   5      10.246  39.942  36.833  0.00  0.00    -0.295 N 
ATOM      8  H   SER A   5      11.202  40.350  36.865  0.00  0.00    +0.150 HD
ATOM      9  O   MET A   4       8.051  40.385  36.523  0.00  0.00    -0.273 OA
BRANCH   7  10
ATOM     10  CA  SER A   5      10.043  38.544  37.264  0.00  0.00    +0.178 C 
BRANCH  10  11
ATOM     11  C   SER A   5       9.814  38.327  38.781  0.00  0.00    +0.243 C 
ATOM     12  N   HIS A   6      10.140  39.327  39.600  0.00  0.00    -0.298 N 
ATOM     13  H   HIS A   6      10.462  40.233  39.204  0.00  0.00    +0.150 HD
ATOM     14  O   SER A   5       9.351  37.256  39.190  0.00  0.00    -0.273 OA
BRANCH  12  15
ATOM     15  CA  HIS A   6      10.049  39.162  41.043  0.00  0.00    +0.143 C 
BRANCH  15  16
ATOM     16  C   HIS A   6       8.631  39.463  41.581  0.00  0.00    +0.227 C 
ATOM     17  O   HIS A   6       7.792  40.069  40.884  0.00  0.00    -0.286 OA
ENDBRANCH  15  16
BRANCH  15  18
ATOM     18  CB  HIS A   6      11.110  40.106  41.680  0.00  0.00    +0.075 C 
BRANCH  18  19
ATOM     19  CG  HIS A   6      10.806  41.542  41.455  0.00  0.00    +0.082 A 
ATOM     20  CD2 HIS A   6      10.469  42.524  42.324  0.00  0.00    +0.115 A 
ATOM     21  NE2 HIS A   6      10.249  43.659  41.587  0.00  0.00    -0.221 NA
ATOM     22  CE1 HIS A   6      10.406  43.373  40.300  0.00  0.00    +0.199 A 
ATOM     23  ND1 HIS A   6      10.782  42.103  40.182  0.00  0.00    -0.227 NA
ENDBRANCH  18  19
ENDBRANCH  15  18
ENDBRANCH  12  15
ENDBRANCH  10  11
BRANCH  10  24
ATOM     24  CB  SER A   5      11.251  37.720  36.813  0.00  0.00    +0.166 C 
BRANCH  24  25
ATOM     25  OG  SER A   5      12.434  38.172  37.469  0.00  0.00    -0.380 OA
ATOM     26  H   SER A   5      12.324  38.075  38.448  0.00  0.00    +0.211 HD
ENDBRANCH  24  25
ENDBRANCH  10  24
ENDBRANCH   7  10
ENDBRANCH   5   6
BRANCH   5  27
ATOM     27  CB  MET A   4      10.160  42.964  36.837  0.00  0.00    +0.041 C 
BRANCH  27  28
ATOM     28  CG  MET A   4      10.896  44.166  36.221  0.00  0.00    +0.060 C 
BRANCH  28  29
ATOM     29  SD  MET A   4      11.572  45.282  37.395  0.00  0.00    -0.139 S 
ATOM     30  CE  MET A   4      12.988  44.415  38.033  0.00  0.00    +0.069 C 
ENDBRANCH  28  29
ENDBRANCH  27  28
ENDBRANCH   5  27
ENDBRANCH   2   5
BRANCH   1  31
ATOM     31  CA  GLU A   3       7.209  43.127  33.069  0.00  0.00    +0.149 C 
BRANCH  31  33
ATOM     32  C   THR A   2       7.403  44.823  31.278  0.00  0.00    +0.243 C 
ATOM     33  N   GLU A   3       7.749  43.647  31.807  0.00  0.00    -0.297 N 
ATOM     34  H   GLU A   3       8.442  43.065  31.295  0.00  0.00    +0.150 HD
ATOM     35  O   THR A   2       6.432  45.472  31.678  0.00  0.00    -0.273 OA
BRANCH  32  36
ATOM     36  CA  THR A   2       8.121  45.282  30.016  0.00  0.00    +0.176 C 
BRANCH  36  39
ATOM     37  C   LEU A   1      10.521  45.844  30.140  0.00  0.00    +0.238 C 
ATOM     38  O   LEU A   1      10.272  46.996  30.474  0.00  0.00    -0.274 OA
ATOM     39  N   THR A   2       9.562  44.931  29.943  0.00  0.00    -0.295 N 
ATOM     40  H   THR A   2       9.834  43.949  29.733  0.00  0.00    +0.150 HD
BRANCH  37  41
ATOM     41  CA  LEU A   1      11.935  45.382  29.848  0.00  0.00    +0.145 C 
BRANCH  41  42
ATOM     42  N   LEU A   1      12.450  46.150  28.713  0.00  0.00    -0.238 NA
ATOM     43  H   LEU A   1      12.995  47.014  28.909  0.00  0.00    +0.142 HD
ENDBRANCH  41  42
BRANCH  41  44
ATOM     44  CB  LEU A   1      12.863  45.597  31.034  0.00  0.00    +0.026 C 
BRANCH  44  45
ATOM     45  CG  LEU A   1      12.435  45.007  32.384  0.00  0.00    +0.002 C 
ATOM     46  CD2 LEU A   1      13.553  45.337  33.366  0.00  0.00    +0.000 C 
ATOM     47  CD1 LEU A   1      12.273  43.494  32.314  0.00  0.00    +0.000 C 
ENDBRANCH  44  45
ENDBRANCH  41  44
ENDBRANCH  37  41
ENDBRANCH  36  39
BRANCH  36  48
ATOM     48  CB  THR A   2       7.328  44.681  28.817  0.00  0.00    +0.137 C 
ATOM     49  CG2 THR A   2       7.921  45.123  27.491  0.00  0.00    +0.034 C 
BRANCH  48  50
ATOM     50  OG1 THR A   2       7.422  43.269  28.874  0.00  0.00    -0.382 OA
ATOM     51  HG1 THR A   2       7.037  42.948  29.728  0.00  0.00    +0.210 HD
ENDBRANCH  48  50
ENDBRANCH  36  48
ENDBRANCH  32  36
ENDBRANCH  31  33
BRANCH  31  52
ATOM     52  CB  GLU A   3       5.994  42.127  32.901  0.00  0.00    +0.041 C 
BRANCH  52  53
ATOM     53  CG  GLU A   3       5.479  41.689  34.311  0.00  0.00    +0.116 C 
BRANCH  53  54
ATOM     54  CD  GLU A   3       4.177  40.900  34.351  0.00  0.00    +0.365 C 
ATOM     55  OE2 GLU A   3       3.919  40.206  35.378  0.00  0.00    -0.246 OA
ATOM     56  OE1 GLU A   3       3.438  40.997  33.386  0.00  0.00    -0.246 OA
ENDBRANCH  53  54
ENDBRANCH  52  53
ENDBRANCH  31  52
ENDBRANCH   1  31
TORSDOF 26
REMARK  Name = ../refined-set-2016/3wjw/3wjw_pocket.pdb
REMARK  215 active torsions:
REMARK  status: ('A' for Active; 'I' for Inactive)
REMARK    1  A    between atoms: _1  and  _3
REMARK    2  A    between atoms: _3  and  _4
REMARK    3  A    between atoms: _3  and  _6
REMARK    4  A    between atoms: _6  and  _7
REMARK    5  A    between atoms: _10  and  _12
REMARK    6  A    between atoms: _12  and  _13
REMARK    7  A    between atoms: _12  and  _15
REMARK    8  A    between atoms: _15  and  _16
REMARK    9  A    between atoms: _19  and  _21
REMARK   10  A    between atoms: _21  and  _22
REMARK   11  A    between atoms: _25  and  _27
REMARK   12  A    between atoms: _27  and  _28
REMARK   13  A    between atoms: _27  and  _30
REMARK   14  A    between atoms: _30  and  _31
REMARK   15  A    between atoms: _31  and  _32
REMARK   16  A    between atoms: _34  and  _36
REMARK   17  A    between atoms: _36  and  _37
REMARK   18  A    between atoms: _36  and  _39
REMARK   19  A    between atoms: _39  and  _40
REMARK   20  A    between atoms: _43  and  _45
REMARK   21  A    between atoms: _45  and  _46
REMARK   22  A    between atoms: _45  and  _48
REMARK   23  A    between atoms: _48  and  _49
REMARK   24  A    between atoms: _49  and  _50
REMARK   25  A    between atoms: _50  and  _51
REMARK   26  A    between atoms: _51  and  _52
REMARK   27  A    between atoms: _56  and  _58
REMARK   28  A    between atoms: _58  and  _59
REMARK   29  A    between atoms: _58  and  _61
REMARK   30  A    between atoms: _61  and  _62
REMARK   31  A    between atoms: _65  and  _67
REMARK   32  A    between atoms: _67  and  _68
REMARK   33  A    between atoms: _70  and  _72
REMARK   34  A    between atoms: _72  and  _73
REMARK   35  A    between atoms: _72  and  _75
REMARK   36  A    between atoms: _75  and  _76
REMARK   37  A    between atoms: _81  and  _82
REMARK   38  A    between atoms: _85  and  _86
REMARK   39  A    between atoms: _91  and  _93
REMARK   40  A    between atoms: _93  and  _94
REMARK   41  A    between atoms: _93  and  _96
REMARK   42  A    between atoms: _96  and  _97
REMARK   43  A    between atoms: _100  and  _102
REMARK   44  A    between atoms: _102  and  _103
REMARK   45  A    between atoms: _102  and  _105
REMARK   46  A    between atoms: _105  and  _106
REMARK   47  A    between atoms: _109  and  _111
REMARK   48  A    between atoms: _111  and  _112
REMARK   49  A    between atoms: _111  and  _114
REMARK   50  A    between atoms: _114  and  _115
REMARK   51  A    between atoms: _118  and  _120
REMARK   52  A    between atoms: _120  and  _121
REMARK   53  A    between atoms: _120  and  _123
REMARK   54  A    between atoms: _123  and  _124
REMARK   55  A    between atoms: _130  and  _132
REMARK   56  A    between atoms: _132  and  _133
REMARK   57  A    between atoms: _132  and  _135
REMARK   58  A    between atoms: _135  and  _136
REMARK   59  A    between atoms: _136  and  _137
REMARK   60  A    between atoms: _137  and  _138
REMARK   61  A    between atoms: _138  and  _139
REMARK   62  A    between atoms: _143  and  _145
REMARK   63  A    between atoms: _145  and  _146
REMARK   64  A    between atoms: _145  and  _148
REMARK   65  A    between atoms: _148  and  _149
REMARK   66  A    between atoms: _152  and  _154
REMARK   67  A    between atoms: _154  and  _155
REMARK   68  A    between atoms: _154  and  _157
REMARK   69  A    between atoms: _157  and  _158
REMARK   70  A    between atoms: _163  and  _165
REMARK   71  A    between atoms: _165  and  _166
REMARK   72  A    between atoms: _165  and  _168
REMARK   73  A    between atoms: _168  and  _169
REMARK   74  A    between atoms: _172  and  _174
REMARK   75  A    between atoms: _174  and  _175
REMARK   76  A    between atoms: _174  and  _177
REMARK   77  A    between atoms: _177  and  _178
REMARK   78  A    between atoms: _181  and  _183
REMARK   79  A    between atoms: _183  and  _184
REMARK   80  A    between atoms: _183  and  _186
REMARK   81  A    between atoms: _186  and  _187
REMARK   82  A    between atoms: _187  and  _188
REMARK   83  A    between atoms: _191  and  _193
REMARK   84  A    between atoms: _193  and  _194
REMARK   85  A    between atoms: _193  and  _196
REMARK   86  A    between atoms: _196  and  _197
REMARK   87  A    between atoms: _197  and  _198
REMARK   88  A    between atoms: _200  and  _202
REMARK   89  A    between atoms: _202  and  _203
REMARK   90  A    between atoms: _202  and  _205
REMARK   91  A    between atoms: _205  and  _206
REMARK   92  A    between atoms: _208  and  _210
REMARK   93  A    between atoms: _210  and  _211
REMARK   94  A    between atoms: _210  and  _213
REMARK   95  A    between atoms: _213  and  _214
REMARK   96  A    between atoms: _219  and  _221
REMARK   97  A    between atoms: _221  and  _222
REMARK   98  A    between atoms: _225  and  _227
REMARK   99  A    between atoms: _227  and  _228
REMARK  100  A    between atoms: _227  and  _230
REMARK  101  A    between atoms: _230  and  _231
REMARK  102  A    between atoms: _234  and  _236
REMARK  103  A    between atoms: _236  and  _237
REMARK  104  A    between atoms: _236  and  _239
REMARK  105  A    between atoms: _242  and  _244
REMARK  106  A    between atoms: _244  and  _245
REMARK  107  A    between atoms: _248  and  _249
REMARK  108  A    between atoms: _254  and  _256
REMARK  109  A    between atoms: _256  and  _257
REMARK  110  A    between atoms: _256  and  _259
REMARK  111  A    between atoms: _259  and  _260
REMARK  112  A    between atoms: _262  and  _264
REMARK  113  A    between atoms: _264  and  _265
REMARK  114  A    between atoms: _264  and  _267
REMARK  115  A    between atoms: _267  and  _268
REMARK  116  A    between atoms: _271  and  _273
REMARK  117  A    between atoms: _273  and  _274
REMARK  118  A    between atoms: _273  and  _276
REMARK  119  A    between atoms: _276  and  _277
REMARK  120  A    between atoms: _277  and  _278
REMARK  121  A    between atoms: _278  and  _279
REMARK  122  A    between atoms: _288  and  _290
REMARK  123  A    between atoms: _290  and  _291
REMARK  124  A    between atoms: _290  and  _293
REMARK  125  A    between atoms: _293  and  _294
REMARK  126  A    between atoms: _297  and  _299
REMARK  127  A    between atoms: _299  and  _300
REMARK  128  A    between atoms: _299  and  _302
REMARK  129  A    between atoms: _302  and  _303
REMARK  130  A    between atoms: _306  and  _307
REMARK  131  A    between atoms: _312  and  _314
REMARK  132  A    between atoms: _314  and  _315
REMARK  133  A    between atoms: _317  and  _319
REMARK  134  A    between atoms: _319  and  _320
REMARK  135  A    between atoms: _319  and  _322
REMARK  136  A    between atoms: _325  and  _327
REMARK  137  A    between atoms: _327  and  _328
REMARK  138  A    between atoms: _330  and  _332
REMARK  139  A    between atoms: _332  and  _333
REMARK  140  A    between atoms: _336  and  _338
REMARK  141  A    between atoms: _338  and  _339
REMARK  142  A    between atoms: _338  and  _341
REMARK  143  A    between atoms: _341  and  _342
REMARK  144  A    between atoms: _342  and  _343
REMARK  145  A    between atoms: _348  and  _350
REMARK  146  A    between atoms: _350  and  _351
REMARK  147  A    between atoms: _353  and  _355
REMARK  148  A    between atoms: _355  and  _356
REMARK  149  A    between atoms: _358  and  _360
REMARK  150  A    between atoms: _360  and  _361
REMARK  151  A    between atoms: _360  and  _363
REMARK  152  A    between atoms: _363  and  _364
REMARK  153  A    between atoms: _367  and  _369
REMARK  154  A    between atoms: _369  and  _370
REMARK  155  A    between atoms: _369  and  _372
REMARK  156  A    between atoms: _375  and  _377
REMARK  157  A    between atoms: _377  and  _378
REMARK  158  A    between atoms: _380  and  _382
REMARK  159  A    between atoms: _382  and  _383
REMARK  160  A    between atoms: _382  and  _385
REMARK  161  A    between atoms: _385  and  _386
REMARK  162  A    between atoms: _386  and  _387
REMARK  163  A    between atoms: _387  and  _388
REMARK  164  A    between atoms: _397  and  _399
REMARK  165  A    between atoms: _399  and  _400
REMARK  166  A    between atoms: _399  and  _402
REMARK  167  A    between atoms: _402  and  _403
REMARK  168  A    between atoms: _405  and  _407
REMARK  169  A    between atoms: _407  and  _408
REMARK  170  A    between atoms: _407  and  _410
REMARK  171  A    between atoms: _410  and  _411
REMARK  172  A    between atoms: _414  and  _416
REMARK  173  A    between atoms: _416  and  _417
REMARK  174  A    between atoms: _416  and  _419
REMARK  175  A    between atoms: _419  and  _420
REMARK  176  A    between atoms: _425  and  _426
REMARK  177  A    between atoms: _428  and  _430
REMARK  178  A    between atoms: _430  and  _431
REMARK  179  A    between atoms: _430  and  _433
REMARK  180  A    between atoms: _433  and  _434
REMARK  181  A    between atoms: _437  and  _439
REMARK  182  A    between atoms: _439  and  _440
REMARK  183  A    between atoms: _443  and  _445
REMARK  184  A    between atoms: _445  and  _446
REMARK  185  A    between atoms: _445  and  _448
REMARK  186  A    between atoms: _448  and  _449
REMARK  187  A    between atoms: _452  and  _454
REMARK  188  A    between atoms: _454  and  _455
REMARK  189  A    between atoms: _454  and  _457
REMARK  190  A    between atoms: _457  and  _458
REMARK  191  A    between atoms: _462  and  _463
REMARK  192  A    between atoms: _468  and  _470
REMARK  193  A    between atoms: _470  and  _471
REMARK  194  A    between atoms: _470  and  _473
REMARK  195  A    between atoms: _473  and  _474
REMARK  196  A    between atoms: _474  and  _475
REMARK  197  A    between atoms: _478  and  _480
REMARK  198  A    between atoms: _480  and  _481
REMARK  199  A    between atoms: _480  and  _483
REMARK  200  A    between atoms: _483  and  _484
REMARK  201  A    between atoms: _487  and  _489
REMARK  202  A    between atoms: _489  and  _490
REMARK  203  A    between atoms: _489  and  _492
REMARK  204  A    between atoms: _492  and  _493
REMARK  205  A    between atoms: _498  and  _500
REMARK  206  A    between atoms: _500  and  _501
REMARK  207  A    between atoms: _500  and  _503
REMARK  208  A    between atoms: _503  and  _504
REMARK  209  A    between atoms: _504  and  _505
REMARK  210  A    between atoms: _505  and  _506
REMARK  211  A    between atoms: _506  and  _507
REMARK  212  A    between atoms: _511  and  _513
REMARK  213  A    between atoms: _513  and  _514
REMARK  214  A    between atoms: _513  and  _516
REMARK  215  A    between atoms: _516  and  _517
REMARK                            x       y       z     vdW  Elec       q    Type
REMARK                         _______ _______ _______ _____ _____    ______ ____
ROOT
ATOM      1  CA  ALA A   1       6.456  43.396  39.960  0.00  0.00    +0.133 C 
ATOM      2  CB  ALA A   1       7.043  42.501  38.878  0.00  0.00    +0.027 C 
ENDROOT
BRANCH   1   3
ATOM      3  N   ALA A   1       6.887  42.951  41.293  0.00  0.00    -0.239 NA
ATOM      4  H   ALA A   1       7.489  42.108  41.386  0.00  0.00    +0.142 HD
ENDBRANCH   1   3
BRANCH   1   5
ATOM      5  C   ALA A   1       4.942  43.405  39.853  0.00  0.00    +0.224 C 
ATOM      6  O   ALA A   1       4.401  44.088  38.989  0.00  0.00    -0.287 OA
ENDBRANCH   1   5
TORSDOF 2
REMARK  Name = ../refined-set-2016/3wjw/3wjw_pocket.pdb
REMARK  215 active torsions:
REMARK  status: ('A' for Active; 'I' for Inactive)
REMARK    1  A    between atoms: _1  and  _3
REMARK    2  A    between atoms: _3  and  _4
REMARK    3  A    between atoms: _3  and  _6
REMARK    4  A    between atoms: _6  and  _7
REMARK    5  A    between atoms: _10  and  _12
REMARK    6  A    between atoms: _12  and  _13
REMARK    7  A    between atoms: _12  and  _15
REMARK    8  A    between atoms: _15  and  _16
REMARK    9  A    between atoms: _19  and  _21
REMARK   10  A    between atoms: _21  and  _22
REMARK   11  A    between atoms: _25  and  _27
REMARK   12  A    between atoms: _27  and  _28
REMARK   13  A    between atoms: _27  and  _30
REMARK   14  A    between atoms: _30  and  _31
REMARK   15  A    between atoms: _31  and  _32
REMARK   16  A    between atoms: _34  and  _36
REMARK   17  A    between atoms: _36  and  _37
REMARK   18  A    between atoms: _36  and  _39
REMARK   19  A    between atoms: _39  and  _40
REMARK   20  A    between atoms: _43  and  _45
REMARK   21  A    between atoms: _45  and  _46
REMARK   22  A    between atoms: _45  and  _48
REMARK   23  A    between atoms: _48  and  _49
REMARK   24  A    between atoms: _49  and  _50
REMARK   25  A    between atoms: _50  and  _51
REMARK   26  A    between atoms: _51  and  _52
REMARK   27  A    between atoms: _56  and  _58
REMARK   28  A    between atoms: _58  and  _59
REMARK   29  A    between atoms: _58  and  _61
REMARK   30  A    between atoms: _61  and  _62
REMARK   31  A    between atoms: _65  and  _67
REMARK   32  A    between atoms: _67  and  _68
REMARK   33  A    between atoms: _70  and  _72
REMARK   34  A    between atoms: _72  and  _73
REMARK   35  A    between atoms: _72  and  _75
REMARK   36  A    between atoms: _75  and  _76
REMARK   37  A    between atoms: _81  and  _82
REMARK   38  A    between atoms: _85  and  _86
REMARK   39  A    between atoms: _91  and  _93
REMARK   40  A    between atoms: _93  and  _94
REMARK   41  A    between atoms: _93  and  _96
REMARK   42  A    between atoms: _96  and  _97
REMARK   43  A    between atoms: _100  and  _102
REMARK   44  A    between atoms: _102  and  _103
REMARK   45  A    between atoms: _102  and  _105
REMARK   46  A    between atoms: _105  and  _106
REMARK   47  A    between atoms: _109  and  _111
REMARK   48  A    between atoms: _111  and  _112
REMARK   49  A    between atoms: _111  and  _114
REMARK   50  A    between atoms: _114  and  _115
REMARK   51  A    between atoms: _118  and  _120
REMARK   52  A    between atoms: _120  and  _121
REMARK   53  A    between atoms: _120  and  _123
REMARK   54  A    between atoms: _123  and  _124
REMARK   55  A    between atoms: _130  and  _132
REMARK   56  A    between atoms: _132  and  _133
REMARK   57  A    between atoms: _132  and  _135
REMARK   58  A    between atoms: _135  and  _136
REMARK   59  A    between atoms: _136  and  _137
REMARK   60  A    between atoms: _137  and  _138
REMARK   61  A    between atoms: _138  and  _139
REMARK   62  A    between atoms: _143  and  _145
REMARK   63  A    between atoms: _145  and  _146
REMARK   64  A    between atoms: _145  and  _148
REMARK   65  A    between atoms: _148  and  _149
REMARK   66  A    between atoms: _152  and  _154
REMARK   67  A    between atoms: _154  and  _155
REMARK   68  A    between atoms: _154  and  _157
REMARK   69  A    between atoms: _157  and  _158
REMARK   70  A    between atoms: _163  and  _165
REMARK   71  A    between atoms: _165  and  _166
REMARK   72  A    between atoms: _165  and  _168
REMARK   73  A    between atoms: _168  and  _169
REMARK   74  A    between atoms: _172  and  _174
REMARK   75  A    between atoms: _174  and  _175
REMARK   76  A    between atoms: _174  and  _177
REMARK   77  A    between atoms: _177  and  _178
REMARK   78  A    between atoms: _181  and  _183
REMARK   79  A    between atoms: _183  and  _184
REMARK   80  A    between atoms: _183  and  _186
REMARK   81  A    between atoms: _186  and  _187
REMARK   82  A    between atoms: _187  and  _188
REMARK   83  A    between atoms: _191  and  _193
REMARK   84  A    between atoms: _193  and  _194
REMARK   85  A    between atoms: _193  and  _196
REMARK   86  A    between atoms: _196  and  _197
REMARK   87  A    between atoms: _197  and  _198
REMARK   88  A    between atoms: _200  and  _202
REMARK   89  A    between atoms: _202  and  _203
REMARK   90  A    between atoms: _202  and  _205
REMARK   91  A    between atoms: _205  and  _206
REMARK   92  A    between atoms: _208  and  _210
REMARK   93  A    between atoms: _210  and  _211
REMARK   94  A    between atoms: _210  and  _213
REMARK   95  A    between atoms: _213  and  _214
REMARK   96  A    between atoms: _219  and  _221
REMARK   97  A    between atoms: _221  and  _222
REMARK   98  A    between atoms: _225  and  _227
REMARK   99  A    between atoms: _227  and  _228
REMARK  100  A    between atoms: _227  and  _230
REMARK  101  A    between atoms: _230  and  _231
REMARK  102  A    between atoms: _234  and  _236
REMARK  103  A    between atoms: _236  and  _237
REMARK  104  A    between atoms: _236  and  _239
REMARK  105  A    between atoms: _242  and  _244
REMARK  106  A    between atoms: _244  and  _245
REMARK  107  A    between atoms: _248  and  _249
REMARK  108  A    between atoms: _254  and  _256
REMARK  109  A    between atoms: _256  and  _257
REMARK  110  A    between atoms: _256  and  _259
REMARK  111  A    between atoms: _259  and  _260
REMARK  112  A    between atoms: _262  and  _264
REMARK  113  A    between atoms: _264  and  _265
REMARK  114  A    between atoms: _264  and  _267
REMARK  115  A    between atoms: _267  and  _268
REMARK  116  A    between atoms: _271  and  _273
REMARK  117  A    between atoms: _273  and  _274
REMARK  118  A    between atoms: _273  and  _276
REMARK  119  A    between atoms: _276  and  _277
REMARK  120  A    between atoms: _277  and  _278
REMARK  121  A    between atoms: _278  and  _279
REMARK  122  A    between atoms: _288  and  _290
REMARK  123  A    between atoms: _290  and  _291
REMARK  124  A    between atoms: _290  and  _293
REMARK  125  A    between atoms: _293  and  _294
REMARK  126  A    between atoms: _297  and  _299
REMARK  127  A    between atoms: _299  and  _300
REMARK  128  A    between atoms: _299  and  _302
REMARK  129  A    between atoms: _302  and  _303
REMARK  130  A    between atoms: _306  and  _307
REMARK  131  A    between atoms: _312  and  _314
REMARK  132  A    between atoms: _314  and  _315
REMARK  133  A    between atoms: _317  and  _319
REMARK  134  A    between atoms: _319  and  _320
REMARK  135  A    between atoms: _319  and  _322
REMARK  136  A    between atoms: _325  and  _327
REMARK  137  A    between atoms: _327  and  _328
REMARK  138  A    between atoms: _330  and  _332
REMARK  139  A    between atoms: _332  and  _333
REMARK  140  A    between atoms: _336  and  _338
REMARK  141  A    between atoms: _338  and  _339
REMARK  142  A    between atoms: _338  and  _341
REMARK  143  A    between atoms: _341  and  _342
REMARK  144  A    between atoms: _342  and  _343
REMARK  145  A    between atoms: _348  and  _350
REMARK  146  A    between atoms: _350  and  _351
REMARK  147  A    between atoms: _353  and  _355
REMARK  148  A    between atoms: _355  and  _356
REMARK  149  A    between atoms: _358  and  _360
REMARK  150  A    between atoms: _360  and  _361
REMARK  151  A    between atoms: _360  and  _363
REMARK  152  A    between atoms: _363  and  _364
REMARK  153  A    between atoms: _367  and  _369
REMARK  154  A    between atoms: _369  and  _370
REMARK  155  A    between atoms: _369  and  _372
REMARK  156  A    between atoms: _375  and  _377
REMARK  157  A    between atoms: _377  and  _378
REMARK  158  A    between atoms: _380  and  _382
REMARK  159  A    between atoms: _382  and  _383
REMARK  160  A    between atoms: _382  and  _385
REMARK  161  A    between atoms: _385  and  _386
REMARK  162  A    between atoms: _386  and  _387
REMARK  163  A    between atoms: _387  and  _388
REMARK  164  A    between atoms: _397  and  _399
REMARK  165  A    between atoms: _399  and  _400
REMARK  166  A    between atoms: _399  and  _402
REMARK  167  A    between atoms: _402  and  _403
REMARK  168  A    between atoms: _405  and  _407
REMARK  169  A    between atoms: _407  and  _408
REMARK  170  A    between atoms: _407  and  _410
REMARK  171  A    between atoms: _410  and  _411
REMARK  172  A    between atoms: _414  and  _416
REMARK  173  A    between atoms: _416  and  _417
REMARK  174  A    between atoms: _416  and  _419
REMARK  175  A    between atoms: _419  and  _420
REMARK  176  A    between atoms: _425  and  _426
REMARK  177  A    between atoms: _428  and  _430
REMARK  178  A    between atoms: _430  and  _431
REMARK  179  A    between atoms: _430  and  _433
REMARK  180  A    between atoms: _433  and  _434
REMARK  181  A    between atoms: _437  and  _439
REMARK  182  A    between atoms: _439  and  _440
REMARK  183  A    between atoms: _443  and  _445
REMARK  184  A    between atoms: _445  and  _446
REMARK  185  A    between atoms: _445  and  _448
REMARK  186  A    between atoms: _448  and  _449
REMARK  187  A    between atoms: _452  and  _454
REMARK  188  A    between atoms: _454  and  _455
REMARK  189  A    between atoms: _454  and  _457
REMARK  190  A    between atoms: _457  and  _458
REMARK  191  A    between atoms: _462  and  _463
REMARK  192  A    between atoms: _468  and  _470
REMARK  193  A    between atoms: _470  and  _471
REMARK  194  A    between atoms: _470  and  _473
REMARK  195  A    between atoms: _473  and  _474
REMARK  196  A    between atoms: _474  and  _475
REMARK  197  A    between atoms: _478  and  _480
REMARK  198  A    between atoms: _480  and  _481
REMARK  199  A    between atoms: _480  and  _483
REMARK  200  A    between atoms: _483  and  _484
REMARK  201  A    between atoms: _487  and  _489
REMARK  202  A    between atoms: _489  and  _490
REMARK  203  A    between atoms: _489  and  _492
REMARK  204  A    between atoms: _492  and  _493
REMARK  205  A    between atoms: _498  and  _500
REMARK  206  A    between atoms: _500  and  _501
REMARK  207  A    between atoms: _500  and  _503
REMARK  208  A    between atoms: _503  and  _504
REMARK  209  A    between atoms: _504  and  _505
REMARK  210  A    between atoms: _505  and  _506
REMARK  211  A    between atoms: _506  and  _507
REMARK  212  A    between atoms: _511  and  _513
REMARK  213  A    between atoms: _513  and  _514
REMARK  214  A    between atoms: _513  and  _516
REMARK  215  A    between atoms: _516  and  _517
REMARK                            x       y       z     vdW  Elec       q    Type
REMARK                         _______ _______ _______ _____ _____    ______ ____
ROOT
ATOM      1  CA  ILE A   1       4.558  47.040  36.750  0.00  0.00    +0.133 C 
ENDROOT
BRANCH   1   2
ATOM      2  N   ILE A   1       4.110  47.313  38.129  0.00  0.00    -0.239 NA
ATOM      3  H   ILE A   1       4.620  46.903  38.937  0.00  0.00    +0.142 HD
ENDBRANCH   1   2
BRANCH   1   4
ATOM      4  CB  ILE A   1       5.957  46.421  36.708  0.00  0.00    +0.023 C 
ATOM      5  CG2 ILE A   1       6.266  45.952  35.277  0.00  0.00    +0.002 C 
BRANCH   4   6
ATOM      6  CG1 ILE A   1       7.029  47.428  37.119  0.00  0.00    +0.002 C 
ATOM      7  CD1 ILE A   1       8.415  46.770  37.386  0.00  0.00    +0.000 C 
ENDBRANCH   4   6
ENDBRANCH   1   4
BRANCH   1   8
ATOM      8  C   ILE A   1       3.557  46.187  35.984  0.00  0.00    +0.224 C 
ATOM      9  O   ILE A   1       3.268  46.468  34.834  0.00  0.00    -0.287 OA
ENDBRANCH   1   8
TORSDOF 4
REMARK  Name = ../refined-set-2016/3wjw/3wjw_pocket.pdb
REMARK  215 active torsions:
REMARK  status: ('A' for Active; 'I' for Inactive)
REMARK    1  A    between atoms: _1  and  _3
REMARK    2  A    between atoms: _3  and  _4
REMARK    3  A    between atoms: _3  and  _6
REMARK    4  A    between atoms: _6  and  _7
REMARK    5  A    between atoms: _10  and  _12
REMARK    6  A    between atoms: _12  and  _13
REMARK    7  A    between atoms: _12  and  _15
REMARK    8  A    between atoms: _15  and  _16
REMARK    9  A    between atoms: _19  and  _21
REMARK   10  A    between atoms: _21  and  _22
REMARK   11  A    between atoms: _25  and  _27
REMARK   12  A    between atoms: _27  and  _28
REMARK   13  A    between atoms: _27  and  _30
REMARK   14  A    between atoms: _30  and  _31
REMARK   15  A    between atoms: _31  and  _32
REMARK   16  A    between atoms: _34  and  _36
REMARK   17  A    between atoms: _36  and  _37
REMARK   18  A    between atoms: _36  and  _39
REMARK   19  A    between atoms: _39  and  _40
REMARK   20  A    between atoms: _43  and  _45
REMARK   21  A    between atoms: _45  and  _46
REMARK   22  A    between atoms: _45  and  _48
REMARK   23  A    between atoms: _48  and  _49
REMARK   24  A    between atoms: _49  and  _50
REMARK   25  A    between atoms: _50  and  _51
REMARK   26  A    between atoms: _51  and  _52
REMARK   27  A    between atoms: _56  and  _58
REMARK   28  A    between atoms: _58  and  _59
REMARK   29  A    between atoms: _58  and  _61
REMARK   30  A    between atoms: _61  and  _62
REMARK   31  A    between atoms: _65  and  _67
REMARK   32  A    between atoms: _67  and  _68
REMARK   33  A    between atoms: _70  and  _72
REMARK   34  A    between atoms: _72  and  _73
REMARK   35  A    between atoms: _72  and  _75
REMARK   36  A    between atoms: _75  and  _76
REMARK   37  A    between atoms: _81  and  _82
REMARK   38  A    between atoms: _85  and  _86
REMARK   39  A    between atoms: _91  and  _93
REMARK   40  A    between atoms: _93  and  _94
REMARK   41  A    between atoms: _93  and  _96
REMARK   42  A    between atoms: _96  and  _97
REMARK   43  A    between atoms: _100  and  _102
REMARK   44  A    between atoms: _102  and  _103
REMARK   45  A    between atoms: _102  and  _105
REMARK   46  A    between atoms: _105  and  _106
REMARK   47  A    between atoms: _109  and  _111
REMARK   48  A    between atoms: _111  and  _112
REMARK   49  A    between atoms: _111  and  _114
REMARK   50  A    between atoms: _114  and  _115
REMARK   51  A    between atoms: _118  and  _120
REMARK   52  A    between atoms: _120  and  _121
REMARK   53  A    between atoms: _120  and  _123
REMARK   54  A    between atoms: _123  and  _124
REMARK   55  A    between atoms: _130  and  _132
REMARK   56  A    between atoms: _132  and  _133
REMARK   57  A    between atoms: _132  and  _135
REMARK   58  A    between atoms: _135  and  _136
REMARK   59  A    between atoms: _136  and  _137
REMARK   60  A    between atoms: _137  and  _138
REMARK   61  A    between atoms: _138  and  _139
REMARK   62  A    between atoms: _143  and  _145
REMARK   63  A    between atoms: _145  and  _146
REMARK   64  A    between atoms: _145  and  _148
REMARK   65  A    between atoms: _148  and  _149
REMARK   66  A    between atoms: _152  and  _154
REMARK   67  A    between atoms: _154  and  _155
REMARK   68  A    between atoms: _154  and  _157
REMARK   69  A    between atoms: _157  and  _158
REMARK   70  A    between atoms: _163  and  _165
REMARK   71  A    between atoms: _165  and  _166
REMARK   72  A    between atoms: _165  and  _168
REMARK   73  A    between atoms: _168  and  _169
REMARK   74  A    between atoms: _172  and  _174
REMARK   75  A    between atoms: _174  and  _175
REMARK   76  A    between atoms: _174  and  _177
REMARK   77  A    between atoms: _177  and  _178
REMARK   78  A    between atoms: _181  and  _183
REMARK   79  A    between atoms: _183  and  _184
REMARK   80  A    between atoms: _183  and  _186
REMARK   81  A    between atoms: _186  and  _187
REMARK   82  A    between atoms: _187  and  _188
REMARK   83  A    between atoms: _191  and  _193
REMARK   84  A    between atoms: _193  and  _194
REMARK   85  A    between atoms: _193  and  _196
REMARK   86  A    between atoms: _196  and  _197
REMARK   87  A    between atoms: _197  and  _198
REMARK   88  A    between atoms: _200  and  _202
REMARK   89  A    between atoms: _202  and  _203
REMARK   90  A    between atoms: _202  and  _205
REMARK   91  A    between atoms: _205  and  _206
REMARK   92  A    between atoms: _208  and  _210
REMARK   93  A    between atoms: _210  and  _211
REMARK   94  A    between atoms: _210  and  _213
REMARK   95  A    between atoms: _213  and  _214
REMARK   96  A    between atoms: _219  and  _221
REMARK   97  A    between atoms: _221  and  _222
REMARK   98  A    between atoms: _225  and  _227
REMARK   99  A    between atoms: _227  and  _228
REMARK  100  A    between atoms: _227  and  _230
REMARK  101  A    between atoms: _230  and  _231
REMARK  102  A    between atoms: _234  and  _236
REMARK  103  A    between atoms: _236  and  _237
REMARK  104  A    between atoms: _236  and  _239
REMARK  105  A    between atoms: _242  and  _244
REMARK  106  A    between atoms: _244  and  _245
REMARK  107  A    between atoms: _248  and  _249
REMARK  108  A    between atoms: _254  and  _256
REMARK  109  A    between atoms: _256  and  _257
REMARK  110  A    between atoms: _256  and  _259
REMARK  111  A    between atoms: _259  and  _260
REMARK  112  A    between atoms: _262  and  _264
REMARK  113  A    between atoms: _264  and  _265
REMARK  114  A    between atoms: _264  and  _267
REMARK  115  A    between atoms: _267  and  _268
REMARK  116  A    between atoms: _271  and  _273
REMARK  117  A    between atoms: _273  and  _274
REMARK  118  A    between atoms: _273  and  _276
REMARK  119  A    between atoms: _276  and  _277
REMARK  120  A    between atoms: _277  and  _278
REMARK  121  A    between atoms: _278  and  _279
REMARK  122  A    between atoms: _288  and  _290
REMARK  123  A    between atoms: _290  and  _291
REMARK  124  A    between atoms: _290  and  _293
REMARK  125  A    between atoms: _293  and  _294
REMARK  126  A    between atoms: _297  and  _299
REMARK  127  A    between atoms: _299  and  _300
REMARK  128  A    between atoms: _299  and  _302
REMARK  129  A    between atoms: _302  and  _303
REMARK  130  A    between atoms: _306  and  _307
REMARK  131  A    between atoms: _312  and  _314
REMARK  132  A    between atoms: _314  and  _315
REMARK  133  A    between atoms: _317  and  _319
REMARK  134  A    between atoms: _319  and  _320
REMARK  135  A    between atoms: _319  and  _322
REMARK  136  A    between atoms: _325  and  _327
REMARK  137  A    between atoms: _327  and  _328
REMARK  138  A    between atoms: _330  and  _332
REMARK  139  A    between atoms: _332  and  _333
REMARK  140  A    between atoms: _336  and  _338
REMARK  141  A    between atoms: _338  and  _339
REMARK  142  A    between atoms: _338  and  _341
REMARK  143  A    between atoms: _341  and  _342
REMARK  144  A    between atoms: _342  and  _343
REMARK  145  A    between atoms: _348  and  _350
REMARK  146  A    between atoms: _350  and  _351
REMARK  147  A    between atoms: _353  and  _355
REMARK  148  A    between atoms: _355  and  _356
REMARK  149  A    between atoms: _358  and  _360
REMARK  150  A    between atoms: _360  and  _361
REMARK  151  A    between atoms: _360  and  _363
REMARK  152  A    between atoms: _363  and  _364
REMARK  153  A    between atoms: _367  and  _369
REMARK  154  A    between atoms: _369  and  _370
REMARK  155  A    between atoms: _369  and  _372
REMARK  156  A    between atoms: _375  and  _377
REMARK  157  A    between atoms: _377  and  _378
REMARK  158  A    between atoms: _380  and  _382
REMARK  159  A    between atoms: _382  and  _383
REMARK  160  A    between atoms: _382  and  _385
REMARK  161  A    between atoms: _385  and  _386
REMARK  162  A    between atoms: _386  and  _387
REMARK  163  A    between atoms: _387  and  _388
REMARK  164  A    between atoms: _397  and  _399
REMARK  165  A    between atoms: _399  and  _400
REMARK  166  A    between atoms: _399  and  _402
REMARK  167  A    between atoms: _402  and  _403
REMARK  168  A    between atoms: _405  and  _407
REMARK  169  A    between atoms: _407  and  _408
REMARK  170  A    between atoms: _407  and  _410
REMARK  171  A    between atoms: _410  and  _411
REMARK  172  A    between atoms: _414  and  _416
REMARK  173  A    between atoms: _416  and  _417
REMARK  174  A    between atoms: _416  and  _419
REMARK  175  A    between atoms: _419  and  _420
REMARK  176  A    between atoms: _425  and  _426
REMARK  177  A    between atoms: _428  and  _430
REMARK  178  A    between atoms: _430  and  _431
REMARK  179  A    between atoms: _430  and  _433
REMARK  180  A    between atoms: _433  and  _434
REMARK  181  A    between atoms: _437  and  _439
REMARK  182  A    between atoms: _439  and  _440
REMARK  183  A    between atoms: _443  and  _445
REMARK  184  A    between atoms: _445  and  _446
REMARK  185  A    between atoms: _445  and  _448
REMARK  186  A    between atoms: _448  and  _449
REMARK  187  A    between atoms: _452  and  _454
REMARK  188  A    between atoms: _454  and  _455
REMARK  189  A    between atoms: _454  and  _457
REMARK  190  A    between atoms: _457  and  _458
REMARK  191  A    between atoms: _462  and  _463
REMARK  192  A    between atoms: _468  and  _470
REMARK  193  A    between atoms: _470  and  _471
REMARK  194  A    between atoms: _470  and  _473
REMARK  195  A    between atoms: _473  and  _474
REMARK  196  A    between atoms: _474  and  _475
REMARK  197  A    between atoms: _478  and  _480
REMARK  198  A    between atoms: _480  and  _481
REMARK  199  A    between atoms: _480  and  _483
REMARK  200  A    between atoms: _483  and  _484
REMARK  201  A    between atoms: _487  and  _489
REMARK  202  A    between atoms: _489  and  _490
REMARK  203  A    between atoms: _489  and  _492
REMARK  204  A    between atoms: _492  and  _493
REMARK  205  A    between atoms: _498  and  _500
REMARK  206  A    between atoms: _500  and  _501
REMARK  207  A    between atoms: _500  and  _503
REMARK  208  A    between atoms: _503  and  _504
REMARK  209  A    between atoms: _504  and  _505
REMARK  210  A    between atoms: _505  and  _506
REMARK  211  A    between atoms: _506  and  _507
REMARK  212  A    between atoms: _511  and  _513
REMARK  213  A    between atoms: _513  and  _514
REMARK  214  A    between atoms: _513  and  _516
REMARK  215  A    between atoms: _516  and  _517
REMARK                            x       y       z     vdW  Elec       q    Type
REMARK                         _______ _______ _______ _____ _____    ______ ____
ROOT
ATOM      1  C   SER A   4       9.022  32.831  34.372  0.00  0.00    +0.243 C 
ATOM      2  N   THR A   5       8.938  33.615  35.442  0.00  0.00    -0.295 N 
ATOM      3  H   THR A   5       9.466  34.511  35.447  0.00  0.00    +0.150 HD
ATOM      4  O   SER A   4       8.378  31.782  34.252  0.00  0.00    -0.273 OA
ENDROOT
BRANCH   2   5
ATOM      5  CA  THR A   5       8.136  33.270  36.609  0.00  0.00    +0.176 C 
BRANCH   5   6
ATOM      6  C   THR A   5       6.633  33.369  36.379  0.00  0.00    +0.243 C 
ATOM      7  O   THR A   5       5.838  32.876  37.208  0.00  0.00    -0.273 OA
ATOM      8  N   ARG A   6       6.223  33.970  35.266  0.00  0.00    -0.298 N 
ATOM      9  H   ARG A   6       6.924  34.360  34.604  0.00  0.00    +0.150 HD
BRANCH   8  10
ATOM     10  CA  ARG A   6       4.814  34.087  34.966  0.00  0.00    +0.137 C 
BRANCH  10  11
ATOM     11  C   ARG A   6       4.617  33.771  33.496  0.00  0.00    +0.227 C 
ATOM     12  O   ARG A   6       4.419  34.692  32.677  0.00  0.00    -0.286 OA
ENDBRANCH  10  11
BRANCH  10  13
ATOM     13  CB  ARG A   6       4.283  35.492  35.280  0.00  0.00    +0.031 C 
BRANCH  13  14
ATOM     14  CG  ARG A   6       4.456  35.912  36.720  0.00  0.00    +0.045 C 
BRANCH  14  15
ATOM     15  CD  ARG A   6       3.688  37.240  37.026  0.00  0.00    +0.174 C 
BRANCH  15  16
ATOM     16  NE  ARG A   6       4.186  37.682  38.330  0.00  0.00    -0.265 N 
ATOM     17  HE  ARG A   6       3.676  37.370  39.181  0.00  0.00    +0.259 HD
ATOM     18  CZ  ARG A   6       5.255  38.461  38.490  0.00  0.00    +0.342 C 
ATOM     19  NH2 ARG A   6       5.732  38.638  39.699  0.00  0.00    -0.292 N 
ATOM     20 HH21 ARG A   6       5.277  38.174  40.511  0.00  0.00    +0.255 HD
ATOM     21 HH22 ARG A   6       6.566  39.242  39.846  0.00  0.00    +0.255 HD
ATOM     22  NH1 ARG A   6       5.816  39.085  37.458  0.00  0.00    -0.292 N 
ATOM     23 HH11 ARG A   6       6.650  39.688  37.606  0.00  0.00    +0.255 HD
ATOM     24 HH12 ARG A   6       5.421  38.970  36.503  0.00  0.00    +0.255 HD
ENDBRANCH  15  16
ENDBRANCH  14  15
ENDBRANCH  13  14
ENDBRANCH  10  13
ENDBRANCH   8  10
ENDBRANCH   5   6
BRANCH   5  25
ATOM     25  CB  THR A   5       8.504  34.175  37.779  0.00  0.00    +0.137 C 
ATOM     26  CG2 THR A   5       9.917  33.909  38.297  0.00  0.00    +0.034 C 
BRANCH  25  27
ATOM     27  OG1 THR A   5       8.441  35.524  37.331  0.00  0.00    -0.382 OA
ATOM     28  HG1 THR A   5       8.677  36.130  38.078  0.00  0.00    +0.210 HD
ENDBRANCH  25  27
ENDBRANCH   5  25
ENDBRANCH   2   5
BRANCH   1  29
ATOM     29  CA  SER A   4       9.951  33.314  33.268  0.00  0.00    +0.178 C 
BRANCH  29  31
ATOM     30  C   PRO A   3       9.003  35.550  33.011  0.00  0.00    +0.241 C 
ATOM     31  N   SER A   4      10.061  34.767  33.265  0.00  0.00    -0.295 N 
ATOM     32  H   SER A   4      10.982  35.207  33.465  0.00  0.00    +0.150 HD
ATOM     33  O   PRO A   3       7.889  35.118  32.732  0.00  0.00    -0.273 OA
BRANCH  30  36
ATOM     34  C   GLY A   2       9.835  38.177  30.987  0.00  0.00    +0.246 C 
ATOM     35  N   PRO A   3       8.886  37.901  31.904  0.00  0.00    -0.272 N 
ATOM     36  CA  PRO A   3       9.245  37.086  33.092  0.00  0.00    +0.152 C 
ATOM     37  CB  PRO A   3       8.338  37.678  34.202  0.00  0.00    +0.031 C 
ATOM     38  CG  PRO A   3       7.127  38.145  33.478  0.00  0.00    +0.024 C 
ATOM     39  CD  PRO A   3       7.610  38.629  32.093  0.00  0.00    +0.094 C 
ATOM     40  O   GLY A   2      10.836  37.453  30.805  0.00  0.00    -0.273 OA
BRANCH  34  41
ATOM     41  CA  GLY A   2       9.602  39.409  30.116  0.00  0.00    +0.176 C 
BRANCH  41  43
ATOM     42  C   VAL A   1      11.127  40.916  28.946  0.00  0.00    +0.238 C 
ATOM     43  N   GLY A   2      10.771  39.675  29.310  0.00  0.00    -0.296 N 
ATOM     44  H   GLY A   2      11.358  38.875  29.000  0.00  0.00    +0.150 HD
ATOM     45  O   VAL A   1      10.472  41.910  29.273  0.00  0.00    -0.274 OA
BRANCH  42  46
ATOM     46  CA  VAL A   1      12.407  41.060  28.151  0.00  0.00    +0.145 C 
BRANCH  46  47
ATOM     47  CB  VAL A   1      13.464  41.709  29.068  0.00  0.00    +0.025 C 
ATOM     48  CG2 VAL A   1      13.885  40.714  30.203  0.00  0.00    +0.002 C 
ATOM     49  CG1 VAL A   1      14.706  42.197  28.290  0.00  0.00    +0.002 C 
ENDBRANCH  46  47
BRANCH  46  50
ATOM     50  N   VAL A   1      12.142  41.938  27.002  0.00  0.00    -0.238 NA
ATOM     51  H   VAL A   1      11.731  42.880  27.162  0.00  0.00    +0.142 HD
ENDBRANCH  46  50
ENDBRANCH  42  46
ENDBRANCH  41  43
ENDBRANCH  34  41
ENDBRANCH  30  36
ENDBRANCH  29  31
BRANCH  29  52
ATOM     52  CB  SER A   4      11.355  32.752  33.499  0.00  0.00    +0.166 C 
BRANCH  52  53
ATOM     53  OG  SER A   4      11.288  31.364  33.712  0.00  0.00    -0.380 OA
ATOM     54  H   SER A   4      10.889  30.928  32.918  0.00  0.00    +0.211 HD
ENDBRANCH  52  53
ENDBRANCH  29  52
ENDBRANCH   1  29
TORSDOF 20
REMARK  Name = ../refined-set-2016/3wjw/3wjw_pocket.pdb
REMARK  215 active torsions:
REMARK  status: ('A' for Active; 'I' for Inactive)
REMARK    1  A    between atoms: _1  and  _3
REMARK    2  A    between atoms: _3  and  _4
REMARK    3  A    between atoms: _3  and  _6
REMARK    4  A    between atoms: _6  and  _7
REMARK    5  A    between atoms: _10  and  _12
REMARK    6  A    between atoms: _12  and  _13
REMARK    7  A    between atoms: _12  and  _15
REMARK    8  A    between atoms: _15  and  _16
REMARK    9  A    between atoms: _19  and  _21
REMARK   10  A    between atoms: _21  and  _22
REMARK   11  A    between atoms: _25  and  _27
REMARK   12  A    between atoms: _27  and  _28
REMARK   13  A    between atoms: _27  and  _30
REMARK   14  A    between atoms: _30  and  _31
REMARK   15  A    between atoms: _31  and  _32
REMARK   16  A    between atoms: _34  and  _36
REMARK   17  A    between atoms: _36  and  _37
REMARK   18  A    between atoms: _36  and  _39
REMARK   19  A    between atoms: _39  and  _40
REMARK   20  A    between atoms: _43  and  _45
REMARK   21  A    between atoms: _45  and  _46
REMARK   22  A    between atoms: _45  and  _48
REMARK   23  A    between atoms: _48  and  _49
REMARK   24  A    between atoms: _49  and  _50
REMARK   25  A    between atoms: _50  and  _51
REMARK   26  A    between atoms: _51  and  _52
REMARK   27  A    between atoms: _56  and  _58
REMARK   28  A    between atoms: _58  and  _59
REMARK   29  A    between atoms: _58  and  _61
REMARK   30  A    between atoms: _61  and  _62
REMARK   31  A    between atoms: _65  and  _67
REMARK   32  A    between atoms: _67  and  _68
REMARK   33  A    between atoms: _70  and  _72
REMARK   34  A    between atoms: _72  and  _73
REMARK   35  A    between atoms: _72  and  _75
REMARK   36  A    between atoms: _75  and  _76
REMARK   37  A    between atoms: _81  and  _82
REMARK   38  A    between atoms: _85  and  _86
REMARK   39  A    between atoms: _91  and  _93
REMARK   40  A    between atoms: _93  and  _94
REMARK   41  A    between atoms: _93  and  _96
REMARK   42  A    between atoms: _96  and  _97
REMARK   43  A    between atoms: _100  and  _102
REMARK   44  A    between atoms: _102  and  _103
REMARK   45  A    between atoms: _102  and  _105
REMARK   46  A    between atoms: _105  and  _106
REMARK   47  A    between atoms: _109  and  _111
REMARK   48  A    between atoms: _111  and  _112
REMARK   49  A    between atoms: _111  and  _114
REMARK   50  A    between atoms: _114  and  _115
REMARK   51  A    between atoms: _118  and  _120
REMARK   52  A    between atoms: _120  and  _121
REMARK   53  A    between atoms: _120  and  _123
REMARK   54  A    between atoms: _123  and  _124
REMARK   55  A    between atoms: _130  and  _132
REMARK   56  A    between atoms: _132  and  _133
REMARK   57  A    between atoms: _132  and  _135
REMARK   58  A    between atoms: _135  and  _136
REMARK   59  A    between atoms: _136  and  _137
REMARK   60  A    between atoms: _137  and  _138
REMARK   61  A    between atoms: _138  and  _139
REMARK   62  A    between atoms: _143  and  _145
REMARK   63  A    between atoms: _145  and  _146
REMARK   64  A    between atoms: _145  and  _148
REMARK   65  A    between atoms: _148  and  _149
REMARK   66  A    between atoms: _152  and  _154
REMARK   67  A    between atoms: _154  and  _155
REMARK   68  A    between atoms: _154  and  _157
REMARK   69  A    between atoms: _157  and  _158
REMARK   70  A    between atoms: _163  and  _165
REMARK   71  A    between atoms: _165  and  _166
REMARK   72  A    between atoms: _165  and  _168
REMARK   73  A    between atoms: _168  and  _169
REMARK   74  A    between atoms: _172  and  _174
REMARK   75  A    between atoms: _174  and  _175
REMARK   76  A    between atoms: _174  and  _177
REMARK   77  A    between atoms: _177  and  _178
REMARK   78  A    between atoms: _181  and  _183
REMARK   79  A    between atoms: _183  and  _184
REMARK   80  A    between atoms: _183  and  _186
REMARK   81  A    between atoms: _186  and  _187
REMARK   82  A    between atoms: _187  and  _188
REMARK   83  A    between atoms: _191  and  _193
REMARK   84  A    between atoms: _193  and  _194
REMARK   85  A    between atoms: _193  and  _196
REMARK   86  A    between atoms: _196  and  _197
REMARK   87  A    between atoms: _197  and  _198
REMARK   88  A    between atoms: _200  and  _202
REMARK   89  A    between atoms: _202  and  _203
REMARK   90  A    between atoms: _202  and  _205
REMARK   91  A    between atoms: _205  and  _206
REMARK   92  A    between atoms: _208  and  _210
REMARK   93  A    between atoms: _210  and  _211
REMARK   94  A    between atoms: _210  and  _213
REMARK   95  A    between atoms: _213  and  _214
REMARK   96  A    between atoms: _219  and  _221
REMARK   97  A    between atoms: _221  and  _222
REMARK   98  A    between atoms: _225  and  _227
REMARK   99  A    between atoms: _227  and  _228
REMARK  100  A    between atoms: _227  and  _230
REMARK  101  A    between atoms: _230  and  _231
REMARK  102  A    between atoms: _234  and  _236
REMARK  103  A    between atoms: _236  and  _237
REMARK  104  A    between atoms: _236  and  _239
REMARK  105  A    between atoms: _242  and  _244
REMARK  106  A    between atoms: _244  and  _245
REMARK  107  A    between atoms: _248  and  _249
REMARK  108  A    between atoms: _254  and  _256
REMARK  109  A    between atoms: _256  and  _257
REMARK  110  A    between atoms: _256  and  _259
REMARK  111  A    between atoms: _259  and  _260
REMARK  112  A    between atoms: _262  and  _264
REMARK  113  A    between atoms: _264  and  _265
REMARK  114  A    between atoms: _264  and  _267
REMARK  115  A    between atoms: _267  and  _268
REMARK  116  A    between atoms: _271  and  _273
REMARK  117  A    between atoms: _273  and  _274
REMARK  118  A    between atoms: _273  and  _276
REMARK  119  A    between atoms: _276  and  _277
REMARK  120  A    between atoms: _277  and  _278
REMARK  121  A    between atoms: _278  and  _279
REMARK  122  A    between atoms: _288  and  _290
REMARK  123  A    between atoms: _290  and  _291
REMARK  124  A    between atoms: _290  and  _293
REMARK  125  A    between atoms: _293  and  _294
REMARK  126  A    between atoms: _297  and  _299
REMARK  127  A    between atoms: _299  and  _300
REMARK  128  A    between atoms: _299  and  _302
REMARK  129  A    between atoms: _302  and  _303
REMARK  130  A    between atoms: _306  and  _307
REMARK  131  A    between atoms: _312  and  _314
REMARK  132  A    between atoms: _314  and  _315
REMARK  133  A    between atoms: _317  and  _319
REMARK  134  A    between atoms: _319  and  _320
REMARK  135  A    between atoms: _319  and  _322
REMARK  136  A    between atoms: _325  and  _327
REMARK  137  A    between atoms: _327  and  _328
REMARK  138  A    between atoms: _330  and  _332
REMARK  139  A    between atoms: _332  and  _333
REMARK  140  A    between atoms: _336  and  _338
REMARK  141  A    between atoms: _338  and  _339
REMARK  142  A    between atoms: _338  and  _341
REMARK  143  A    between atoms: _341  and  _342
REMARK  144  A    between atoms: _342  and  _343
REMARK  145  A    between atoms: _348  and  _350
REMARK  146  A    between atoms: _350  and  _351
REMARK  147  A    between atoms: _353  and  _355
REMARK  148  A    between atoms: _355  and  _356
REMARK  149  A    between atoms: _358  and  _360
REMARK  150  A    between atoms: _360  and  _361
REMARK  151  A    between atoms: _360  and  _363
REMARK  152  A    between atoms: _363  and  _364
REMARK  153  A    between atoms: _367  and  _369
REMARK  154  A    between atoms: _369  and  _370
REMARK  155  A    between atoms: _369  and  _372
REMARK  156  A    between atoms: _375  and  _377
REMARK  157  A    between atoms: _377  and  _378
REMARK  158  A    between atoms: _380  and  _382
REMARK  159  A    between atoms: _382  and  _383
REMARK  160  A    between atoms: _382  and  _385
REMARK  161  A    between atoms: _385  and  _386
REMARK  162  A    between atoms: _386  and  _387
REMARK  163  A    between atoms: _387  and  _388
REMARK  164  A    between atoms: _397  and  _399
REMARK  165  A    between atoms: _399  and  _400
REMARK  166  A    between atoms: _399  and  _402
REMARK  167  A    between atoms: _402  and  _403
REMARK  168  A    between atoms: _405  and  _407
REMARK  169  A    between atoms: _407  and  _408
REMARK  170  A    between atoms: _407  and  _410
REMARK  171  A    between atoms: _410  and  _411
REMARK  172  A    between atoms: _414  and  _416
REMARK  173  A    between atoms: _416  and  _417
REMARK  174  A    between atoms: _416  and  _419
REMARK  175  A    between atoms: _419  and  _420
REMARK  176  A    between atoms: _425  and  _426
REMARK  177  A    between atoms: _428  and  _430
REMARK  178  A    between atoms: _430  and  _431
REMARK  179  A    between atoms: _430  and  _433
REMARK  180  A    between atoms: _433  and  _434
REMARK  181  A    between atoms: _437  and  _439
REMARK  182  A    between atoms: _439  and  _440
REMARK  183  A    between atoms: _443  and  _445
REMARK  184  A    between atoms: _445  and  _446
REMARK  185  A    between atoms: _445  and  _448
REMARK  186  A    between atoms: _448  and  _449
REMARK  187  A    between atoms: _452  and  _454
REMARK  188  A    between atoms: _454  and  _455
REMARK  189  A    between atoms: _454  and  _457
REMARK  190  A    between atoms: _457  and  _458
REMARK  191  A    between atoms: _462  and  _463
REMARK  192  A    between atoms: _468  and  _470
REMARK  193  A    between atoms: _470  and  _471
REMARK  194  A    between atoms: _470  and  _473
REMARK  195  A    between atoms: _473  and  _474
REMARK  196  A    between atoms: _474  and  _475
REMARK  197  A    between atoms: _478  and  _480
REMARK  198  A    between atoms: _480  and  _481
REMARK  199  A    between atoms: _480  and  _483
REMARK  200  A    between atoms: _483  and  _484
REMARK  201  A    between atoms: _487  and  _489
REMARK  202  A    between atoms: _489  and  _490
REMARK  203  A    between atoms: _489  and  _492
REMARK  204  A    between atoms: _492  and  _493
REMARK  205  A    between atoms: _498  and  _500
REMARK  206  A    between atoms: _500  and  _501
REMARK  207  A    between atoms: _500  and  _503
REMARK  208  A    between atoms: _503  and  _504
REMARK  209  A    between atoms: _504  and  _505
REMARK  210  A    between atoms: _505  and  _506
REMARK  211  A    between atoms: _506  and  _507
REMARK  212  A    between atoms: _511  and  _513
REMARK  213  A    between atoms: _513  and  _514
REMARK  214  A    between atoms: _513  and  _516
REMARK  215  A    between atoms: _516  and  _517
REMARK                            x       y       z     vdW  Elec       q    Type
REMARK                         _______ _______ _______ _____ _____    ______ ____
ROOT
ATOM      1  CA  VAL A   5      14.720  30.586  35.323  0.00  0.00    +0.149 C 
ENDROOT
BRANCH   1   4
ATOM      2  C   GLY A   4      13.770  32.607  36.312  0.00  0.00    +0.243 C 
ATOM      3  O   GLY A   4      13.008  31.989  37.033  0.00  0.00    -0.273 OA
ATOM      4  N   VAL A   5      14.601  32.048  35.436  0.00  0.00    -0.297 N 
ATOM      5  H   VAL A   5      15.177  32.656  34.820  0.00  0.00    +0.150 HD
BRANCH   2   6
ATOM      6  CA  GLY A   4      13.739  34.120  36.374  0.00  0.00    +0.176 C 
BRANCH   6   8
ATOM      7  C   PRO A   3      13.963  35.299  34.227  0.00  0.00    +0.241 C 
ATOM      8  N   GLY A   4      14.514  34.732  35.296  0.00  0.00    -0.295 N 
ATOM      9  H   GLY A   4      15.551  34.723  35.369  0.00  0.00    +0.150 HD
ATOM     10  O   PRO A   3      12.741  35.460  34.082  0.00  0.00    -0.273 OA
BRANCH   7  13
ATOM     11  C   SER A   2      14.214  35.387  30.914  0.00  0.00    +0.246 C 
ATOM     12  N   PRO A   3      14.296  36.216  31.961  0.00  0.00    -0.272 N 
ATOM     13  CA  PRO A   3      14.954  35.850  33.231  0.00  0.00    +0.152 C 
ATOM     14  CB  PRO A   3      15.490  37.192  33.735  0.00  0.00    +0.031 C 
ATOM     15  CG  PRO A   3      14.379  38.175  33.288  0.00  0.00    +0.024 C 
ATOM     16  CD  PRO A   3      13.819  37.625  31.999  0.00  0.00    +0.094 C 
ATOM     17  O   SER A   2      14.776  34.297  30.877  0.00  0.00    -0.273 OA
BRANCH  11  18
ATOM     18  CA  SER A   2      13.379  35.830  29.720  0.00  0.00    +0.178 C 
BRANCH  18  20
ATOM     19  C   ILE A   1      13.859  36.969  27.672  0.00  0.00    +0.238 C 
ATOM     20  N   SER A   2      14.161  35.986  28.511  0.00  0.00    -0.295 N 
ATOM     21  H   SER A   2      14.947  35.338  28.303  0.00  0.00    +0.150 HD
ATOM     22  O   ILE A   1      13.100  37.893  27.987  0.00  0.00    -0.274 OA
BRANCH  19  23
ATOM     23  CA  ILE A   1      14.486  36.881  26.290  0.00  0.00    +0.145 C 
BRANCH  23  24
ATOM     24  N   ILE A   1      13.627  37.639  25.362  0.00  0.00    -0.238 NA
ATOM     25  H   ILE A   1      13.483  38.658  25.509  0.00  0.00    +0.142 HD
ENDBRANCH  23  24
BRANCH  23  26
ATOM     26  CB  ILE A   1      15.952  37.382  26.273  0.00  0.00    +0.025 C 
ATOM     27  CG2 ILE A   1      16.508  37.334  24.800  0.00  0.00    +0.002 C 
BRANCH  26  28
ATOM     28  CG1 ILE A   1      16.059  38.806  26.844  0.00  0.00    +0.002 C 
ATOM     29  CD1 ILE A   1      17.525  39.324  26.903  0.00  0.00    +0.000 C 
ENDBRANCH  26  28
ENDBRANCH  23  26
ENDBRANCH  19  23
ENDBRANCH  18  20
BRANCH  18  30
ATOM     30  CB  SER A   2      12.238  34.836  29.442  0.00  0.00    +0.166 C 
BRANCH  30  31
ATOM     31  OG  SER A   2      11.430  34.730  30.613  0.00  0.00    -0.380 OA
ATOM     32  H   SER A   2      11.056  35.619  30.836  0.00  0.00    +0.211 HD
ENDBRANCH  30  31
ENDBRANCH  18  30
ENDBRANCH  11  18
ENDBRANCH   7  13
ENDBRANCH   6   8
ENDBRANCH   2   6
ENDBRANCH   1   4
BRANCH   1  33
ATOM     33  C   VAL A   5      15.632  30.082  36.416  0.00  0.00    +0.241 C 
ATOM     34  N   GLY A   6      15.207  29.040  37.125  0.00  0.00    -0.295 N 
ATOM     35  H   GLY A   6      14.250  28.665  36.968  0.00  0.00    +0.150 HD
ATOM     36  O   VAL A   5      16.752  30.589  36.571  0.00  0.00    -0.273 OA
BRANCH  34  37
ATOM     37  CA  GLY A   6      16.081  28.413  38.130  0.00  0.00    +0.176 C 
BRANCH  37  38
ATOM     38  C   GLY A   6      15.825  29.013  39.489  0.00  0.00    +0.243 C 
ATOM     39  O   GLY A   6      14.805  28.700  40.141  0.00  0.00    -0.273 OA
ATOM     40  N   ALA A   7      16.730  29.893  39.910  0.00  0.00    -0.297 N 
ATOM     41  H   ALA A   7      17.502  30.188  39.278  0.00  0.00    +0.150 HD
BRANCH  40  42
ATOM     42  CA  ALA A   7      16.639  30.445  41.261  0.00  0.00    +0.149 C 
ATOM     43  CB  ALA A   7      17.767  31.429  41.503  0.00  0.00    +0.031 C 
BRANCH  42  44
ATOM     44  C   ALA A   7      15.302  31.060  41.630  0.00  0.00    +0.241 C 
ATOM     45  O   ALA A   7      14.842  30.889  42.766  0.00  0.00    -0.273 OA
ATOM     46  N   GLN A   8      14.695  31.791  40.701  0.00  0.00    -0.297 N 
ATOM     47  H   GLN A   8      15.110  31.860  39.750  0.00  0.00    +0.150 HD
BRANCH  46  48
ATOM     48  CA  GLN A   8      13.455  32.497  40.999  0.00  0.00    +0.149 C 
BRANCH  48  49
ATOM     49  C   GLN A   8      12.258  31.601  40.766  0.00  0.00    +0.241 C 
ATOM     50  O   GLN A   8      11.137  31.999  41.012  0.00  0.00    -0.273 OA
ATOM     51  N   GLY A   9      12.503  30.393  40.252  0.00  0.00    -0.295 N 
ATOM     52  H   GLY A   9      13.462  30.149  39.932  0.00  0.00    +0.150 HD
BRANCH  51  53
ATOM     53  CA  GLY A   9      11.424  29.415  40.140  0.00  0.00    +0.176 C 
BRANCH  53  54
ATOM     54  C   GLY A   9      10.928  29.092  38.738  0.00  0.00    +0.243 C 
ATOM     55  O   GLY A   9      10.124  28.145  38.558  0.00  0.00    -0.273 OA
ATOM     56  N   GLY A  10      11.394  29.817  37.748  0.00  0.00    -0.296 N 
ATOM     57  H   GLY A  10      12.033  30.611  37.955  0.00  0.00    +0.150 HD
BRANCH  56  58
ATOM     58  CA  GLY A  10      11.033  29.532  36.361  0.00  0.00    +0.163 C 
BRANCH  58  59
ATOM     59  C   GLY A  10      11.620  28.271  35.791  0.00  0.00    +0.229 C 
ATOM     60  O   GLY A  10      12.662  27.815  36.209  0.00  0.00    -0.286 OA
ENDBRANCH  58  59
ENDBRANCH  56  58
ENDBRANCH  53  54
ENDBRANCH  51  53
ENDBRANCH  48  49
BRANCH  48  61
ATOM     61  CB  GLN A   8      13.347  33.743  40.128  0.00  0.00    +0.039 C 
BRANCH  61  62
ATOM     62  CG  GLN A   8      14.396  34.778  40.425  0.00  0.00    +0.087 C 
BRANCH  62  63
ATOM     63  CD  GLN A   8      14.226  35.998  39.503  0.00  0.00    +0.219 C 
ATOM     64  OE1 GLN A   8      13.161  36.614  39.461  0.00  0.00    -0.275 OA
ATOM     65  NE2 GLN A   8      15.270  36.322  38.729  0.00  0.00    -0.329 N 
ATOM     66 HE21 GLN A   8      16.154  35.777  38.793  0.00  0.00    +0.145 HD
ATOM     67 HE22 GLN A   8      15.197  37.118  38.064  0.00  0.00    +0.145 HD
ENDBRANCH  62  63
ENDBRANCH  61  62
ENDBRANCH  48  61
ENDBRANCH  46  48
ENDBRANCH  42  44
ENDBRANCH  40  42
ENDBRANCH  37  38
ENDBRANCH  34  37
ENDBRANCH   1  33
BRANCH   1  68
ATOM     68  CB  VAL A   5      15.329  30.213  33.960  0.00  0.00    +0.027 C 
ATOM     69  CG2 VAL A   5      15.632  28.688  33.820  0.00  0.00    +0.002 C 
ATOM     70  CG1 VAL A   5      14.364  30.667  32.843  0.00  0.00    +0.002 C 
ENDBRANCH   1  68
TORSDOF 27
REMARK  Name = ../refined-set-2016/3wjw/3wjw_pocket.pdb
REMARK  215 active torsions:
REMARK  status: ('A' for Active; 'I' for Inactive)
REMARK    1  A    between atoms: _1  and  _3
REMARK    2  A    between atoms: _3  and  _4
REMARK    3  A    between atoms: _3  and  _6
REMARK    4  A    between atoms: _6  and  _7
REMARK    5  A    between atoms: _10  and  _12
REMARK    6  A    between atoms: _12  and  _13
REMARK    7  A    between atoms: _12  and  _15
REMARK    8  A    between atoms: _15  and  _16
REMARK    9  A    between atoms: _19  and  _21
REMARK   10  A    between atoms: _21  and  _22
REMARK   11  A    between atoms: _25  and  _27
REMARK   12  A    between atoms: _27  and  _28
REMARK   13  A    between atoms: _27  and  _30
REMARK   14  A    between atoms: _30  and  _31
REMARK   15  A    between atoms: _31  and  _32
REMARK   16  A    between atoms: _34  and  _36
REMARK   17  A    between atoms: _36  and  _37
REMARK   18  A    between atoms: _36  and  _39
REMARK   19  A    between atoms: _39  and  _40
REMARK   20  A    between atoms: _43  and  _45
REMARK   21  A    between atoms: _45  and  _46
REMARK   22  A    between atoms: _45  and  _48
REMARK   23  A    between atoms: _48  and  _49
REMARK   24  A    between atoms: _49  and  _50
REMARK   25  A    between atoms: _50  and  _51
REMARK   26  A    between atoms: _51  and  _52
REMARK   27  A    between atoms: _56  and  _58
REMARK   28  A    between atoms: _58  and  _59
REMARK   29  A    between atoms: _58  and  _61
REMARK   30  A    between atoms: _61  and  _62
REMARK   31  A    between atoms: _65  and  _67
REMARK   32  A    between atoms: _67  and  _68
REMARK   33  A    between atoms: _70  and  _72
REMARK   34  A    between atoms: _72  and  _73
REMARK   35  A    between atoms: _72  and  _75
REMARK   36  A    between atoms: _75  and  _76
REMARK   37  A    between atoms: _81  and  _82
REMARK   38  A    between atoms: _85  and  _86
REMARK   39  A    between atoms: _91  and  _93
REMARK   40  A    between atoms: _93  and  _94
REMARK   41  A    between atoms: _93  and  _96
REMARK   42  A    between atoms: _96  and  _97
REMARK   43  A    between atoms: _100  and  _102
REMARK   44  A    between atoms: _102  and  _103
REMARK   45  A    between atoms: _102  and  _105
REMARK   46  A    between atoms: _105  and  _106
REMARK   47  A    between atoms: _109  and  _111
REMARK   48  A    between atoms: _111  and  _112
REMARK   49  A    between atoms: _111  and  _114
REMARK   50  A    between atoms: _114  and  _115
REMARK   51  A    between atoms: _118  and  _120
REMARK   52  A    between atoms: _120  and  _121
REMARK   53  A    between atoms: _120  and  _123
REMARK   54  A    between atoms: _123  and  _124
REMARK   55  A    between atoms: _130  and  _132
REMARK   56  A    between atoms: _132  and  _133
REMARK   57  A    between atoms: _132  and  _135
REMARK   58  A    between atoms: _135  and  _136
REMARK   59  A    between atoms: _136  and  _137
REMARK   60  A    between atoms: _137  and  _138
REMARK   61  A    between atoms: _138  and  _139
REMARK   62  A    between atoms: _143  and  _145
REMARK   63  A    between atoms: _145  and  _146
REMARK   64  A    between atoms: _145  and  _148
REMARK   65  A    between atoms: _148  and  _149
REMARK   66  A    between atoms: _152  and  _154
REMARK   67  A    between atoms: _154  and  _155
REMARK   68  A    between atoms: _154  and  _157
REMARK   69  A    between atoms: _157  and  _158
REMARK   70  A    between atoms: _163  and  _165
REMARK   71  A    between atoms: _165  and  _166
REMARK   72  A    between atoms: _165  and  _168
REMARK   73  A    between atoms: _168  and  _169
REMARK   74  A    between atoms: _172  and  _174
REMARK   75  A    between atoms: _174  and  _175
REMARK   76  A    between atoms: _174  and  _177
REMARK   77  A    between atoms: _177  and  _178
REMARK   78  A    between atoms: _181  and  _183
REMARK   79  A    between atoms: _183  and  _184
REMARK   80  A    between atoms: _183  and  _186
REMARK   81  A    between atoms: _186  and  _187
REMARK   82  A    between atoms: _187  and  _188
REMARK   83  A    between atoms: _191  and  _193
REMARK   84  A    between atoms: _193  and  _194
REMARK   85  A    between atoms: _193  and  _196
REMARK   86  A    between atoms: _196  and  _197
REMARK   87  A    between atoms: _197  and  _198
REMARK   88  A    between atoms: _200  and  _202
REMARK   89  A    between atoms: _202  and  _203
REMARK   90  A    between atoms: _202  and  _205
REMARK   91  A    between atoms: _205  and  _206
REMARK   92  A    between atoms: _208  and  _210
REMARK   93  A    between atoms: _210  and  _211
REMARK   94  A    between atoms: _210  and  _213
REMARK   95  A    between atoms: _213  and  _214
REMARK   96  A    between atoms: _219  and  _221
REMARK   97  A    between atoms: _221  and  _222
REMARK   98  A    between atoms: _225  and  _227
REMARK   99  A    between atoms: _227  and  _228
REMARK  100  A    between atoms: _227  and  _230
REMARK  101  A    between atoms: _230  and  _231
REMARK  102  A    between atoms: _234  and  _236
REMARK  103  A    between atoms: _236  and  _237
REMARK  104  A    between atoms: _236  and  _239
REMARK  105  A    between atoms: _242  and  _244
REMARK  106  A    between atoms: _244  and  _245
REMARK  107  A    between atoms: _248  and  _249
REMARK  108  A    between atoms: _254  and  _256
REMARK  109  A    between atoms: _256  and  _257
REMARK  110  A    between atoms: _256  and  _259
REMARK  111  A    between atoms: _259  and  _260
REMARK  112  A    between atoms: _262  and  _264
REMARK  113  A    between atoms: _264  and  _265
REMARK  114  A    between atoms: _264  and  _267
REMARK  115  A    between atoms: _267  and  _268
REMARK  116  A    between atoms: _271  and  _273
REMARK  117  A    between atoms: _273  and  _274
REMARK  118  A    between atoms: _273  and  _276
REMARK  119  A    between atoms: _276  and  _277
REMARK  120  A    between atoms: _277  and  _278
REMARK  121  A    between atoms: _278  and  _279
REMARK  122  A    between atoms: _288  and  _290
REMARK  123  A    between atoms: _290  and  _291
REMARK  124  A    between atoms: _290  and  _293
REMARK  125  A    between atoms: _293  and  _294
REMARK  126  A    between atoms: _297  and  _299
REMARK  127  A    between atoms: _299  and  _300
REMARK  128  A    between atoms: _299  and  _302
REMARK  129  A    between atoms: _302  and  _303
REMARK  130  A    between atoms: _306  and  _307
REMARK  131  A    between atoms: _312  and  _314
REMARK  132  A    between atoms: _314  and  _315
REMARK  133  A    between atoms: _317  and  _319
REMARK  134  A    between atoms: _319  and  _320
REMARK  135  A    between atoms: _319  and  _322
REMARK  136  A    between atoms: _325  and  _327
REMARK  137  A    between atoms: _327  and  _328
REMARK  138  A    between atoms: _330  and  _332
REMARK  139  A    between atoms: _332  and  _333
REMARK  140  A    between atoms: _336  and  _338
REMARK  141  A    between atoms: _338  and  _339
REMARK  142  A    between atoms: _338  and  _341
REMARK  143  A    between atoms: _341  and  _342
REMARK  144  A    between atoms: _342  and  _343
REMARK  145  A    between atoms: _348  and  _350
REMARK  146  A    between atoms: _350  and  _351
REMARK  147  A    between atoms: _353  and  _355
REMARK  148  A    between atoms: _355  and  _356
REMARK  149  A    between atoms: _358  and  _360
REMARK  150  A    between atoms: _360  and  _361
REMARK  151  A    between atoms: _360  and  _363
REMARK  152  A    between atoms: _363  and  _364
REMARK  153  A    between atoms: _367  and  _369
REMARK  154  A    between atoms: _369  and  _370
REMARK  155  A    between atoms: _369  and  _372
REMARK  156  A    between atoms: _375  and  _377
REMARK  157  A    between atoms: _377  and  _378
REMARK  158  A    between atoms: _380  and  _382
REMARK  159  A    between atoms: _382  and  _383
REMARK  160  A    between atoms: _382  and  _385
REMARK  161  A    between atoms: _385  and  _386
REMARK  162  A    between atoms: _386  and  _387
REMARK  163  A    between atoms: _387  and  _388
REMARK  164  A    between atoms: _397  and  _399
REMARK  165  A    between atoms: _399  and  _400
REMARK  166  A    between atoms: _399  and  _402
REMARK  167  A    between atoms: _402  and  _403
REMARK  168  A    between atoms: _405  and  _407
REMARK  169  A    between atoms: _407  and  _408
REMARK  170  A    between atoms: _407  and  _410
REMARK  171  A    between atoms: _410  and  _411
REMARK  172  A    between atoms: _414  and  _416
REMARK  173  A    between atoms: _416  and  _417
REMARK  174  A    between atoms: _416  and  _419
REMARK  175  A    between atoms: _419  and  _420
REMARK  176  A    between atoms: _425  and  _426
REMARK  177  A    between atoms: _428  and  _430
REMARK  178  A    between atoms: _430  and  _431
REMARK  179  A    between atoms: _430  and  _433
REMARK  180  A    between atoms: _433  and  _434
REMARK  181  A    between atoms: _437  and  _439
REMARK  182  A    between atoms: _439  and  _440
REMARK  183  A    between atoms: _443  and  _445
REMARK  184  A    between atoms: _445  and  _446
REMARK  185  A    between atoms: _445  and  _448
REMARK  186  A    between atoms: _448  and  _449
REMARK  187  A    between atoms: _452  and  _454
REMARK  188  A    between atoms: _454  and  _455
REMARK  189  A    between atoms: _454  and  _457
REMARK  190  A    between atoms: _457  and  _458
REMARK  191  A    between atoms: _462  and  _463
REMARK  192  A    between atoms: _468  and  _470
REMARK  193  A    between atoms: _470  and  _471
REMARK  194  A    between atoms: _470  and  _473
REMARK  195  A    between atoms: _473  and  _474
REMARK  196  A    between atoms: _474  and  _475
REMARK  197  A    between atoms: _478  and  _480
REMARK  198  A    between atoms: _480  and  _481
REMARK  199  A    between atoms: _480  and  _483
REMARK  200  A    between atoms: _483  and  _484
REMARK  201  A    between atoms: _487  and  _489
REMARK  202  A    between atoms: _489  and  _490
REMARK  203  A    between atoms: _489  and  _492
REMARK  204  A    between atoms: _492  and  _493
REMARK  205  A    between atoms: _498  and  _500
REMARK  206  A    between atoms: _500  and  _501
REMARK  207  A    between atoms: _500  and  _503
REMARK  208  A    between atoms: _503  and  _504
REMARK  209  A    between atoms: _504  and  _505
REMARK  210  A    between atoms: _505  and  _506
REMARK  211  A    between atoms: _506  and  _507
REMARK  212  A    between atoms: _511  and  _513
REMARK  213  A    between atoms: _513  and  _514
REMARK  214  A    between atoms: _513  and  _516
REMARK  215  A    between atoms: _516  and  _517
REMARK                            x       y       z     vdW  Elec       q    Type
REMARK                         _______ _______ _______ _____ _____    ______ ____
ROOT
ATOM      1  C   ARG A   4      22.622  30.279  39.770  0.00  0.00    +0.241 C 
ATOM      2  O   ARG A   4      23.517  29.608  40.300  0.00  0.00    -0.273 OA
ATOM      3  N   SER A   5      21.620  29.724  39.072  0.00  0.00    -0.295 N 
ATOM      4  H   SER A   5      20.872  30.332  38.683  0.00  0.00    +0.150 HD
ENDROOT
BRANCH   3   5
ATOM      5  CA  SER A   5      21.558  28.254  38.843  0.00  0.00    +0.178 C 
BRANCH   5   6
ATOM      6  C   SER A   5      22.815  27.749  38.155  0.00  0.00    +0.243 C 
ATOM      7  O   SER A   5      23.215  26.557  38.325  0.00  0.00    -0.273 OA
ATOM      8  N   ILE A   6      23.466  28.646  37.401  0.00  0.00    -0.297 N 
ATOM      9  H   ILE A   6      23.039  29.578  37.227  0.00  0.00    +0.150 HD
BRANCH   8  10
ATOM     10  CA  ILE A   6      24.779  28.325  36.817  0.00  0.00    +0.149 C 
BRANCH  10  11
ATOM     11  C   ILE A   6      25.923  28.842  37.710  0.00  0.00    +0.241 C 
ATOM     12  O   ILE A   6      26.814  28.047  38.102  0.00  0.00    -0.273 OA
ATOM     13  N   TYR A   7      25.948  30.147  38.020  0.00  0.00    -0.297 N 
ATOM     14  H   TYR A   7      25.122  30.758  37.859  0.00  0.00    +0.150 HD
BRANCH  13  15
ATOM     15  CA  TYR A   7      27.198  30.679  38.600  0.00  0.00    +0.153 C 
BRANCH  15  16
ATOM     16  C   TYR A   7      27.434  30.382  40.075  0.00  0.00    +0.241 C 
ATOM     17  N   LEU A   8      26.395  29.932  40.765  0.00  0.00    -0.298 N 
ATOM     18  H   LEU A   8      25.457  29.901  40.318  0.00  0.00    +0.150 HD
ATOM     19  O   TYR A   7      28.565  30.535  40.533  0.00  0.00    -0.273 OA
BRANCH  17  20
ATOM     20  CA  LEU A   8      26.553  29.472  42.166  0.00  0.00    +0.137 C 
BRANCH  20  21
ATOM     21  C   LEU A   8      26.661  27.957  42.278  0.00  0.00    +0.227 C 
ATOM     22  O   LEU A   8      26.838  27.401  43.379  0.00  0.00    -0.286 OA
ENDBRANCH  20  21
BRANCH  20  23
ATOM     23  CB  LEU A   8      25.427  29.977  43.081  0.00  0.00    +0.028 C 
BRANCH  23  24
ATOM     24  CG  LEU A   8      25.364  31.494  43.242  0.00  0.00    +0.002 C 
ATOM     25  CD2 LEU A   8      24.214  31.820  44.172  0.00  0.00    +0.000 C 
ATOM     26  CD1 LEU A   8      26.755  32.059  43.713  0.00  0.00    +0.000 C 
ENDBRANCH  23  24
ENDBRANCH  20  23
ENDBRANCH  17  20
ENDBRANCH  15  16
BRANCH  15  27
ATOM     27  CB  TYR A   7      27.415  32.168  38.272  0.00  0.00    +0.055 C 
BRANCH  27  28
ATOM     28  CG  TYR A   7      26.512  33.179  38.987  0.00  0.00    -0.020 A 
ATOM     29  CD2 TYR A   7      26.606  33.393  40.366  0.00  0.00    -0.001 A 
ATOM     30  CE2 TYR A   7      25.797  34.335  41.008  0.00  0.00    +0.036 A 
ATOM     31  CZ  TYR A   7      24.898  35.081  40.238  0.00  0.00    +0.134 A 
ATOM     32  CE1 TYR A   7      24.808  34.896  38.866  0.00  0.00    +0.036 A 
ATOM     33  CD1 TYR A   7      25.604  33.940  38.246  0.00  0.00    -0.001 A 
BRANCH  31  34
ATOM     34  OH  TYR A   7      24.090  36.026  40.841  0.00  0.00    -0.506 OA
ATOM     35  HH  TYR A   7      23.140  35.796  40.683  0.00  0.00    +0.292 HD
ENDBRANCH  31  34
ENDBRANCH  27  28
ENDBRANCH  15  27
ENDBRANCH  13  15
ENDBRANCH  10  11
BRANCH  10  36
ATOM     36  CB  ILE A   6      24.889  28.865  35.381  0.00  0.00    +0.027 C 
ATOM     37  CG2 ILE A   6      26.338  28.766  34.858  0.00  0.00    +0.002 C 
BRANCH  36  38
ATOM     38  CG1 ILE A   6      23.881  28.082  34.525  0.00  0.00    +0.002 C 
ATOM     39  CD1 ILE A   6      23.699  28.633  33.088  0.00  0.00    +0.000 C 
ENDBRANCH  36  38
ENDBRANCH  10  36
ENDBRANCH   8  10
ENDBRANCH   5   6
BRANCH   5  40
ATOM     40  CB  SER A   5      20.325  27.867  38.008  0.00  0.00    +0.166 C 
BRANCH  40  41
ATOM     41  OG  SER A   5      19.203  28.070  38.805  0.00  0.00    -0.380 OA
ATOM     42  H   SER A   5      19.157  29.022  39.072  0.00  0.00    +0.211 HD
ENDBRANCH  40  41
ENDBRANCH   5  40
ENDBRANCH   3   5
BRANCH   1  43
ATOM     43  CA  ARG A   4      22.650  31.816  39.973  0.00  0.00    +0.149 C 
BRANCH  43  45
ATOM     44  C   GLY A   3      22.719  32.448  37.609  0.00  0.00    +0.243 C 
ATOM     45  N   ARG A   4      22.178  32.585  38.812  0.00  0.00    -0.297 N 
ATOM     46  H   ARG A   4      21.395  33.258  38.938  0.00  0.00    +0.150 HD
ATOM     47  O   GLY A   3      23.517  31.545  37.332  0.00  0.00    -0.273 OA
BRANCH  44  48
ATOM     48  CA  GLY A   3      22.325  33.459  36.557  0.00  0.00    +0.176 C 
BRANCH  48  50
ATOM     49  C   VAL A   2      21.385  32.617  34.451  0.00  0.00    +0.241 C 
ATOM     50  N   GLY A   3      21.204  32.967  35.739  0.00  0.00    -0.295 N 
ATOM     51  H   GLY A   3      20.257  32.888  36.162  0.00  0.00    +0.150 HD
ATOM     52  O   VAL A   2      22.463  32.686  33.842  0.00  0.00    -0.273 OA
BRANCH  49  53
ATOM     53  CA  VAL A   2      20.156  32.088  33.759  0.00  0.00    +0.148 C 
BRANCH  53  56
ATOM     54  C   ILE A   1      18.699  33.307  32.218  0.00  0.00    +0.238 C 
ATOM     55  O   ILE A   1      17.686  33.107  32.916  0.00  0.00    -0.274 OA
ATOM     56  N   VAL A   2      19.918  32.858  32.512  0.00  0.00    -0.297 N 
ATOM     57  H   VAL A   2      20.709  33.048  31.864  0.00  0.00    +0.150 HD
BRANCH  54  58
ATOM     58  CA  ILE A   1      18.589  34.114  30.955  0.00  0.00    +0.145 C 
BRANCH  58  59
ATOM     59  CB  ILE A   1      18.305  35.587  31.327  0.00  0.00    +0.025 C 
ATOM     60  CG2 ILE A   1      19.345  36.149  32.326  0.00  0.00    +0.002 C 
BRANCH  59  61
ATOM     61  CG1 ILE A   1      18.324  36.460  30.083  0.00  0.00    +0.002 C 
ATOM     62  CD1 ILE A   1      17.530  37.761  30.351  0.00  0.00    +0.000 C 
ENDBRANCH  59  61
ENDBRANCH  58  59
BRANCH  58  63
ATOM     63  N   ILE A   1      17.456  33.610  30.157  0.00  0.00    -0.238 NA
ATOM     64  H   ILE A   1      16.493  33.909  30.411  0.00  0.00    +0.142 HD
ENDBRANCH  58  63
ENDBRANCH  54  58
ENDBRANCH  53  56
BRANCH  53  65
ATOM     65  CB  VAL A   2      20.343  30.532  33.492  0.00  0.00    +0.027 C 
ATOM     66  CG2 VAL A   2      20.579  29.788  34.824  0.00  0.00    +0.002 C 
ATOM     67  CG1 VAL A   2      19.082  29.960  32.769  0.00  0.00    +0.002 C 
ENDBRANCH  53  65
ENDBRANCH  49  53
ENDBRANCH  48  50
ENDBRANCH  44  48
ENDBRANCH  43  45
BRANCH  43  68
ATOM     68  CB  ARG A   4      21.751  32.185  41.180  0.00  0.00    +0.033 C 
BRANCH  68  69
ATOM     69  CG  ARG A   4      22.124  33.531  41.738  0.00  0.00    +0.045 C 
BRANCH  69  70
ATOM     70  CD  ARG A   4      21.046  34.007  42.724  0.00  0.00    +0.174 C 
BRANCH  70  71
ATOM     71  NE  ARG A   4      19.838  34.432  42.005  0.00  0.00    -0.265 N 
ATOM     72  CZ  ARG A   4      18.675  34.733  42.568  0.00  0.00    +0.342 C 
ATOM     73  NH2 ARG A   4      18.525  34.637  43.899  0.00  0.00    -0.292 N 
ATOM     74 HH21 ARG A   4      19.322  34.326  44.491  0.00  0.00    +0.255 HD
ATOM     75 HH22 ARG A   4      17.612  34.874  44.338  0.00  0.00    +0.255 HD
ATOM     76  NH1 ARG A   4      17.651  35.124  41.811  0.00  0.00    -0.292 N 
ATOM     77 HH11 ARG A   4      16.739  35.360  42.252  0.00  0.00    +0.255 HD
ATOM     78 HH12 ARG A   4      17.764  35.193  40.779  0.00  0.00    +0.255 HD
ATOM     79  HE  ARG A   4      19.899  34.503  40.969  0.00  0.00    +0.259 HD
ENDBRANCH  70  71
ENDBRANCH  69  70
ENDBRANCH  68  69
ENDBRANCH  43  68
ENDBRANCH   1  43
TORSDOF 32
REMARK  Name = ../refined-set-2016/3wjw/3wjw_pocket.pdb
REMARK  215 active torsions:
REMARK  status: ('A' for Active; 'I' for Inactive)
REMARK    1  A    between atoms: _1  and  _3
REMARK    2  A    between atoms: _3  and  _4
REMARK    3  A    between atoms: _3  and  _6
REMARK    4  A    between atoms: _6  and  _7
REMARK    5  A    between atoms: _10  and  _12
REMARK    6  A    between atoms: _12  and  _13
REMARK    7  A    between atoms: _12  and  _15
REMARK    8  A    between atoms: _15  and  _16
REMARK    9  A    between atoms: _19  and  _21
REMARK   10  A    between atoms: _21  and  _22
REMARK   11  A    between atoms: _25  and  _27
REMARK   12  A    between atoms: _27  and  _28
REMARK   13  A    between atoms: _27  and  _30
REMARK   14  A    between atoms: _30  and  _31
REMARK   15  A    between atoms: _31  and  _32
REMARK   16  A    between atoms: _34  and  _36
REMARK   17  A    between atoms: _36  and  _37
REMARK   18  A    between atoms: _36  and  _39
REMARK   19  A    between atoms: _39  and  _40
REMARK   20  A    between atoms: _43  and  _45
REMARK   21  A    between atoms: _45  and  _46
REMARK   22  A    between atoms: _45  and  _48
REMARK   23  A    between atoms: _48  and  _49
REMARK   24  A    between atoms: _49  and  _50
REMARK   25  A    between atoms: _50  and  _51
REMARK   26  A    between atoms: _51  and  _52
REMARK   27  A    between atoms: _56  and  _58
REMARK   28  A    between atoms: _58  and  _59
REMARK   29  A    between atoms: _58  and  _61
REMARK   30  A    between atoms: _61  and  _62
REMARK   31  A    between atoms: _65  and  _67
REMARK   32  A    between atoms: _67  and  _68
REMARK   33  A    between atoms: _70  and  _72
REMARK   34  A    between atoms: _72  and  _73
REMARK   35  A    between atoms: _72  and  _75
REMARK   36  A    between atoms: _75  and  _76
REMARK   37  A    between atoms: _81  and  _82
REMARK   38  A    between atoms: _85  and  _86
REMARK   39  A    between atoms: _91  and  _93
REMARK   40  A    between atoms: _93  and  _94
REMARK   41  A    between atoms: _93  and  _96
REMARK   42  A    between atoms: _96  and  _97
REMARK   43  A    between atoms: _100  and  _102
REMARK   44  A    between atoms: _102  and  _103
REMARK   45  A    between atoms: _102  and  _105
REMARK   46  A    between atoms: _105  and  _106
REMARK   47  A    between atoms: _109  and  _111
REMARK   48  A    between atoms: _111  and  _112
REMARK   49  A    between atoms: _111  and  _114
REMARK   50  A    between atoms: _114  and  _115
REMARK   51  A    between atoms: _118  and  _120
REMARK   52  A    between atoms: _120  and  _121
REMARK   53  A    between atoms: _120  and  _123
REMARK   54  A    between atoms: _123  and  _124
REMARK   55  A    between atoms: _130  and  _132
REMARK   56  A    between atoms: _132  and  _133
REMARK   57  A    between atoms: _132  and  _135
REMARK   58  A    between atoms: _135  and  _136
REMARK   59  A    between atoms: _136  and  _137
REMARK   60  A    between atoms: _137  and  _138
REMARK   61  A    between atoms: _138  and  _139
REMARK   62  A    between atoms: _143  and  _145
REMARK   63  A    between atoms: _145  and  _146
REMARK   64  A    between atoms: _145  and  _148
REMARK   65  A    between atoms: _148  and  _149
REMARK   66  A    between atoms: _152  and  _154
REMARK   67  A    between atoms: _154  and  _155
REMARK   68  A    between atoms: _154  and  _157
REMARK   69  A    between atoms: _157  and  _158
REMARK   70  A    between atoms: _163  and  _165
REMARK   71  A    between atoms: _165  and  _166
REMARK   72  A    between atoms: _165  and  _168
REMARK   73  A    between atoms: _168  and  _169
REMARK   74  A    between atoms: _172  and  _174
REMARK   75  A    between atoms: _174  and  _175
REMARK   76  A    between atoms: _174  and  _177
REMARK   77  A    between atoms: _177  and  _178
REMARK   78  A    between atoms: _181  and  _183
REMARK   79  A    between atoms: _183  and  _184
REMARK   80  A    between atoms: _183  and  _186
REMARK   81  A    between atoms: _186  and  _187
REMARK   82  A    between atoms: _187  and  _188
REMARK   83  A    between atoms: _191  and  _193
REMARK   84  A    between atoms: _193  and  _194
REMARK   85  A    between atoms: _193  and  _196
REMARK   86  A    between atoms: _196  and  _197
REMARK   87  A    between atoms: _197  and  _198
REMARK   88  A    between atoms: _200  and  _202
REMARK   89  A    between atoms: _202  and  _203
REMARK   90  A    between atoms: _202  and  _205
REMARK   91  A    between atoms: _205  and  _206
REMARK   92  A    between atoms: _208  and  _210
REMARK   93  A    between atoms: _210  and  _211
REMARK   94  A    between atoms: _210  and  _213
REMARK   95  A    between atoms: _213  and  _214
REMARK   96  A    between atoms: _219  and  _221
REMARK   97  A    between atoms: _221  and  _222
REMARK   98  A    between atoms: _225  and  _227
REMARK   99  A    between atoms: _227  and  _228
REMARK  100  A    between atoms: _227  and  _230
REMARK  101  A    between atoms: _230  and  _231
REMARK  102  A    between atoms: _234  and  _236
REMARK  103  A    between atoms: _236  and  _237
REMARK  104  A    between atoms: _236  and  _239
REMARK  105  A    between atoms: _242  and  _244
REMARK  106  A    between atoms: _244  and  _245
REMARK  107  A    between atoms: _248  and  _249
REMARK  108  A    between atoms: _254  and  _256
REMARK  109  A    between atoms: _256  and  _257
REMARK  110  A    between atoms: _256  and  _259
REMARK  111  A    between atoms: _259  and  _260
REMARK  112  A    between atoms: _262  and  _264
REMARK  113  A    between atoms: _264  and  _265
REMARK  114  A    between atoms: _264  and  _267
REMARK  115  A    between atoms: _267  and  _268
REMARK  116  A    between atoms: _271  and  _273
REMARK  117  A    between atoms: _273  and  _274
REMARK  118  A    between atoms: _273  and  _276
REMARK  119  A    between atoms: _276  and  _277
REMARK  120  A    between atoms: _277  and  _278
REMARK  121  A    between atoms: _278  and  _279
REMARK  122  A    between atoms: _288  and  _290
REMARK  123  A    between atoms: _290  and  _291
REMARK  124  A    between atoms: _290  and  _293
REMARK  125  A    between atoms: _293  and  _294
REMARK  126  A    between atoms: _297  and  _299
REMARK  127  A    between atoms: _299  and  _300
REMARK  128  A    between atoms: _299  and  _302
REMARK  129  A    between atoms: _302  and  _303
REMARK  130  A    between atoms: _306  and  _307
REMARK  131  A    between atoms: _312  and  _314
REMARK  132  A    between atoms: _314  and  _315
REMARK  133  A    between atoms: _317  and  _319
REMARK  134  A    between atoms: _319  and  _320
REMARK  135  A    between atoms: _319  and  _322
REMARK  136  A    between atoms: _325  and  _327
REMARK  137  A    between atoms: _327  and  _328
REMARK  138  A    between atoms: _330  and  _332
REMARK  139  A    between atoms: _332  and  _333
REMARK  140  A    between atoms: _336  and  _338
REMARK  141  A    between atoms: _338  and  _339
REMARK  142  A    between atoms: _338  and  _341
REMARK  143  A    between atoms: _341  and  _342
REMARK  144  A    between atoms: _342  and  _343
REMARK  145  A    between atoms: _348  and  _350
REMARK  146  A    between atoms: _350  and  _351
REMARK  147  A    between atoms: _353  and  _355
REMARK  148  A    between atoms: _355  and  _356
REMARK  149  A    between atoms: _358  and  _360
REMARK  150  A    between atoms: _360  and  _361
REMARK  151  A    between atoms: _360  and  _363
REMARK  152  A    between atoms: _363  and  _364
REMARK  153  A    between atoms: _367  and  _369
REMARK  154  A    between atoms: _369  and  _370
REMARK  155  A    between atoms: _369  and  _372
REMARK  156  A    between atoms: _375  and  _377
REMARK  157  A    between atoms: _377  and  _378
REMARK  158  A    between atoms: _380  and  _382
REMARK  159  A    between atoms: _382  and  _383
REMARK  160  A    between atoms: _382  and  _385
REMARK  161  A    between atoms: _385  and  _386
REMARK  162  A    between atoms: _386  and  _387
REMARK  163  A    between atoms: _387  and  _388
REMARK  164  A    between atoms: _397  and  _399
REMARK  165  A    between atoms: _399  and  _400
REMARK  166  A    between atoms: _399  and  _402
REMARK  167  A    between atoms: _402  and  _403
REMARK  168  A    between atoms: _405  and  _407
REMARK  169  A    between atoms: _407  and  _408
REMARK  170  A    between atoms: _407  and  _410
REMARK  171  A    between atoms: _410  and  _411
REMARK  172  A    between atoms: _414  and  _416
REMARK  173  A    between atoms: _416  and  _417
REMARK  174  A    between atoms: _416  and  _419
REMARK  175  A    between atoms: _419  and  _420
REMARK  176  A    between atoms: _425  and  _426
REMARK  177  A    between atoms: _428  and  _430
REMARK  178  A    between atoms: _430  and  _431
REMARK  179  A    between atoms: _430  and  _433
REMARK  180  A    between atoms: _433  and  _434
REMARK  181  A    between atoms: _437  and  _439
REMARK  182  A    between atoms: _439  and  _440
REMARK  183  A    between atoms: _443  and  _445
REMARK  184  A    between atoms: _445  and  _446
REMARK  185  A    between atoms: _445  and  _448
REMARK  186  A    between atoms: _448  and  _449
REMARK  187  A    between atoms: _452  and  _454
REMARK  188  A    between atoms: _454  and  _455
REMARK  189  A    between atoms: _454  and  _457
REMARK  190  A    between atoms: _457  and  _458
REMARK  191  A    between atoms: _462  and  _463
REMARK  192  A    between atoms: _468  and  _470
REMARK  193  A    between atoms: _470  and  _471
REMARK  194  A    between atoms: _470  and  _473
REMARK  195  A    between atoms: _473  and  _474
REMARK  196  A    between atoms: _474  and  _475
REMARK  197  A    between atoms: _478  and  _480
REMARK  198  A    between atoms: _480  and  _481
REMARK  199  A    between atoms: _480  and  _483
REMARK  200  A    between atoms: _483  and  _484
REMARK  201  A    between atoms: _487  and  _489
REMARK  202  A    between atoms: _489  and  _490
REMARK  203  A    between atoms: _489  and  _492
REMARK  204  A    between atoms: _492  and  _493
REMARK  205  A    between atoms: _498  and  _500
REMARK  206  A    between atoms: _500  and  _501
REMARK  207  A    between atoms: _500  and  _503
REMARK  208  A    between atoms: _503  and  _504
REMARK  209  A    between atoms: _504  and  _505
REMARK  210  A    between atoms: _505  and  _506
REMARK  211  A    between atoms: _506  and  _507
REMARK  212  A    between atoms: _511  and  _513
REMARK  213  A    between atoms: _513  and  _514
REMARK  214  A    between atoms: _513  and  _516
REMARK  215  A    between atoms: _516  and  _517
REMARK                            x       y       z     vdW  Elec       q    Type
REMARK                         _______ _______ _______ _____ _____    ______ ____
ROOT
ATOM      1  C   PRO A   4      17.000  41.852  45.419  0.00  0.00    +0.241 C 
ATOM      2  O   PRO A   4      17.860  42.626  45.920  0.00  0.00    -0.273 OA
ATOM      3  N   GLU A   5      17.315  40.634  44.930  0.00  0.00    -0.297 N 
ATOM      4  H   GLU A   5      16.593  40.059  44.450  0.00  0.00    +0.150 HD
ENDROOT
BRANCH   1   7
ATOM      5  C   ILE A   3      15.538  42.594  42.908  0.00  0.00    +0.244 C 
ATOM      6  N   PRO A   4      14.949  42.097  43.982  0.00  0.00    -0.272 N 
ATOM      7  CA  PRO A   4      15.546  42.316  45.308  0.00  0.00    +0.152 C 
ATOM      8  CB  PRO A   4      14.608  41.517  46.266  0.00  0.00    +0.031 C 
ATOM      9  CG  PRO A   4      13.279  41.666  45.552  0.00  0.00    +0.024 C 
ATOM     10  CD  PRO A   4      13.588  41.510  44.065  0.00  0.00    +0.094 C 
ATOM     11  O   ILE A   3      16.625  43.149  42.972  0.00  0.00    -0.273 OA
BRANCH   5  12
ATOM     12  CA  ILE A   3      14.812  42.438  41.557  0.00  0.00    +0.149 C 
BRANCH  12  15
ATOM     13  C   ASP A   2      15.217  44.704  40.726  0.00  0.00    +0.241 C 
ATOM     14  O   ASP A   2      14.469  45.222  41.556  0.00  0.00    -0.273 OA
ATOM     15  N   ILE A   3      15.389  43.392  40.629  0.00  0.00    -0.297 N 
ATOM     16  H   ILE A   3      15.968  43.028  39.846  0.00  0.00    +0.150 HD
BRANCH  13  17
ATOM     17  CA  ASP A   2      16.014  45.560  39.722  0.00  0.00    +0.160 C 
BRANCH  17  19
ATOM     18  C   ALA A   1      15.265  47.823  39.202  0.00  0.00    +0.238 C 
ATOM     19  N   ASP A   2      15.880  46.995  40.035  0.00  0.00    -0.297 N 
ATOM     20  H   ASP A   2      16.274  47.364  40.924  0.00  0.00    +0.150 HD
ATOM     21  O   ALA A   1      14.735  47.431  38.154  0.00  0.00    -0.274 OA
BRANCH  18  22
ATOM     22  CA  ALA A   1      15.240  49.287  39.633  0.00  0.00    +0.145 C 
ATOM     23  CB  ALA A   1      14.811  50.201  38.494  0.00  0.00    +0.028 C 
BRANCH  22  24
ATOM     24  N   ALA A   1      16.532  49.727  40.163  0.00  0.00    -0.238 NA
ATOM     25  H   ALA A   1      17.410  49.299  39.806  0.00  0.00    +0.142 HD
ENDBRANCH  22  24
ENDBRANCH  18  22
ENDBRANCH  17  19
BRANCH  17  26
ATOM     26  CB  ASP A   2      17.528  45.192  39.753  0.00  0.00    +0.143 C 
BRANCH  26  27
ATOM     27  CG  ASP A   2      17.927  44.179  38.735  0.00  0.00    +0.367 C 
ATOM     28  OD2 ASP A   2      17.326  43.087  38.638  0.00  0.00    -0.246 OA
ATOM     29  OD1 ASP A   2      18.855  44.509  37.945  0.00  0.00    -0.246 OA
ENDBRANCH  26  27
ENDBRANCH  17  26
ENDBRANCH  13  17
ENDBRANCH  12  15
BRANCH  12  30
ATOM     30  CB  ILE A   3      14.948  40.972  41.031  0.00  0.00    +0.027 C 
ATOM     31  CG2 ILE A   3      14.231  40.838  39.654  0.00  0.00    +0.002 C 
BRANCH  30  32
ATOM     32  CG1 ILE A   3      16.396  40.500  41.028  0.00  0.00    +0.002 C 
ATOM     33  CD1 ILE A   3      16.552  38.999  40.679  0.00  0.00    +0.000 C 
ENDBRANCH  30  32
ENDBRANCH  12  30
ENDBRANCH   5  12
ENDBRANCH   1   7
BRANCH   3  34
ATOM     34  CA  GLU A   5      18.681  40.128  45.080  0.00  0.00    +0.149 C 
BRANCH  34  35
ATOM     35  C   GLU A   5      19.760  40.999  44.397  0.00  0.00    +0.241 C 
ATOM     36  O   GLU A   5      20.841  41.230  44.932  0.00  0.00    -0.273 OA
ATOM     37  N   THR A   6      19.436  41.515  43.199  0.00  0.00    -0.295 N 
ATOM     38  H   THR A   6      18.496  41.315  42.802  0.00  0.00    +0.150 HD
BRANCH  37  39
ATOM     39  CA  THR A   6      20.344  42.331  42.453  0.00  0.00    +0.176 C 
BRANCH  39  40
ATOM     40  C   THR A   6      20.417  43.712  43.102  0.00  0.00    +0.243 C 
ATOM     41  N   ASN A   7      19.262  44.226  43.557  0.00  0.00    -0.298 N 
ATOM     42  H   ASN A   7      18.372  43.703  43.433  0.00  0.00    +0.150 HD
ATOM     43  O   THR A   6      21.515  44.309  43.166  0.00  0.00    -0.273 OA
BRANCH  41  44
ATOM     44  CA  ASN A   7      19.263  45.518  44.224  0.00  0.00    +0.146 C 
BRANCH  44  45
ATOM     45  C   ASN A   7      20.219  45.471  45.416  0.00  0.00    +0.227 C 
ATOM     46  O   ASN A   7      20.950  46.421  45.625  0.00  0.00    -0.286 OA
ENDBRANCH  44  45
BRANCH  44  47
ATOM     47  CB  ASN A   7      17.876  45.828  44.743  0.00  0.00    +0.112 C 
BRANCH  47  48
ATOM     48  CG  ASN A   7      16.994  46.457  43.686  0.00  0.00    +0.222 C 
ATOM     49  ND2 ASN A   7      15.861  47.011  44.106  0.00  0.00    -0.329 N 
ATOM     50 HD21 ASN A   7      15.604  46.969  45.113  0.00  0.00    +0.145 HD
ATOM     51 HD22 ASN A   7      15.232  47.486  43.428  0.00  0.00    +0.145 HD
ATOM     52  OD1 ASN A   7      17.341  46.480  42.508  0.00  0.00    -0.275 OA
ENDBRANCH  47  48
ENDBRANCH  44  47
ENDBRANCH  41  44
ENDBRANCH  39  40
BRANCH  39  53
ATOM     53  CB  THR A   6      19.898  42.386  40.984  0.00  0.00    +0.137 C 
ATOM     54  CG2 THR A   6      20.884  43.225  40.171  0.00  0.00    +0.034 C 
BRANCH  53  55
ATOM     55  OG1 THR A   6      19.904  41.033  40.519  0.00  0.00    -0.382 OA
ATOM     56  HG1 THR A   6      20.818  40.661  40.602  0.00  0.00    +0.210 HD
ENDBRANCH  53  55
ENDBRANCH  39  53
ENDBRANCH  37  39
ENDBRANCH  34  35
BRANCH  34  57
ATOM     57  CB  GLU A   5      18.719  38.681  44.563  0.00  0.00    +0.041 C 
BRANCH  57  58
ATOM     58  CG  GLU A   5      17.735  37.756  45.249  0.00  0.00    +0.116 C 
BRANCH  58  59
ATOM     59  CD  GLU A   5      16.412  37.545  44.431  0.00  0.00    +0.365 C 
ATOM     60  OE2 GLU A   5      15.606  38.469  44.384  0.00  0.00    -0.246 OA
ATOM     61  OE1 GLU A   5      16.150  36.411  43.857  0.00  0.00    -0.246 OA
ENDBRANCH  58  59
ENDBRANCH  57  58
ENDBRANCH  34  57
ENDBRANCH   3  34
TORSDOF 24
REMARK  Name = ../refined-set-2016/3wjw/3wjw_pocket.pdb
REMARK  215 active torsions:
REMARK  status: ('A' for Active; 'I' for Inactive)
REMARK    1  A    between atoms: _1  and  _3
REMARK    2  A    between atoms: _3  and  _4
REMARK    3  A    between atoms: _3  and  _6
REMARK    4  A    between atoms: _6  and  _7
REMARK    5  A    between atoms: _10  and  _12
REMARK    6  A    between atoms: _12  and  _13
REMARK    7  A    between atoms: _12  and  _15
REMARK    8  A    between atoms: _15  and  _16
REMARK    9  A    between atoms: _19  and  _21
REMARK   10  A    between atoms: _21  and  _22
REMARK   11  A    between atoms: _25  and  _27
REMARK   12  A    between atoms: _27  and  _28
REMARK   13  A    between atoms: _27  and  _30
REMARK   14  A    between atoms: _30  and  _31
REMARK   15  A    between atoms: _31  and  _32
REMARK   16  A    between atoms: _34  and  _36
REMARK   17  A    between atoms: _36  and  _37
REMARK   18  A    between atoms: _36  and  _39
REMARK   19  A    between atoms: _39  and  _40
REMARK   20  A    between atoms: _43  and  _45
REMARK   21  A    between atoms: _45  and  _46
REMARK   22  A    between atoms: _45  and  _48
REMARK   23  A    between atoms: _48  and  _49
REMARK   24  A    between atoms: _49  and  _50
REMARK   25  A    between atoms: _50  and  _51
REMARK   26  A    between atoms: _51  and  _52
REMARK   27  A    between atoms: _56  and  _58
REMARK   28  A    between atoms: _58  and  _59
REMARK   29  A    between atoms: _58  and  _61
REMARK   30  A    between atoms: _61  and  _62
REMARK   31  A    between atoms: _65  and  _67
REMARK   32  A    between atoms: _67  and  _68
REMARK   33  A    between atoms: _70  and  _72
REMARK   34  A    between atoms: _72  and  _73
REMARK   35  A    between atoms: _72  and  _75
REMARK   36  A    between atoms: _75  and  _76
REMARK   37  A    between atoms: _81  and  _82
REMARK   38  A    between atoms: _85  and  _86
REMARK   39  A    between atoms: _91  and  _93
REMARK   40  A    between atoms: _93  and  _94
REMARK   41  A    between atoms: _93  and  _96
REMARK   42  A    between atoms: _96  and  _97
REMARK   43  A    between atoms: _100  and  _102
REMARK   44  A    between atoms: _102  and  _103
REMARK   45  A    between atoms: _102  and  _105
REMARK   46  A    between atoms: _105  and  _106
REMARK   47  A    between atoms: _109  and  _111
REMARK   48  A    between atoms: _111  and  _112
REMARK   49  A    between atoms: _111  and  _114
REMARK   50  A    between atoms: _114  and  _115
REMARK   51  A    between atoms: _118  and  _120
REMARK   52  A    between atoms: _120  and  _121
REMARK   53  A    between atoms: _120  and  _123
REMARK   54  A    between atoms: _123  and  _124
REMARK   55  A    between atoms: _130  and  _132
REMARK   56  A    between atoms: _132  and  _133
REMARK   57  A    between atoms: _132  and  _135
REMARK   58  A    between atoms: _135  and  _136
REMARK   59  A    between atoms: _136  and  _137
REMARK   60  A    between atoms: _137  and  _138
REMARK   61  A    between atoms: _138  and  _139
REMARK   62  A    between atoms: _143  and  _145
REMARK   63  A    between atoms: _145  and  _146
REMARK   64  A    between atoms: _145  and  _148
REMARK   65  A    between atoms: _148  and  _149
REMARK   66  A    between atoms: _152  and  _154
REMARK   67  A    between atoms: _154  and  _155
REMARK   68  A    between atoms: _154  and  _157
REMARK   69  A    between atoms: _157  and  _158
REMARK   70  A    between atoms: _163  and  _165
REMARK   71  A    between atoms: _165  and  _166
REMARK   72  A    between atoms: _165  and  _168
REMARK   73  A    between atoms: _168  and  _169
REMARK   74  A    between atoms: _172  and  _174
REMARK   75  A    between atoms: _174  and  _175
REMARK   76  A    between atoms: _174  and  _177
REMARK   77  A    between atoms: _177  and  _178
REMARK   78  A    between atoms: _181  and  _183
REMARK   79  A    between atoms: _183  and  _184
REMARK   80  A    between atoms: _183  and  _186
REMARK   81  A    between atoms: _186  and  _187
REMARK   82  A    between atoms: _187  and  _188
REMARK   83  A    between atoms: _191  and  _193
REMARK   84  A    between atoms: _193  and  _194
REMARK   85  A    between atoms: _193  and  _196
REMARK   86  A    between atoms: _196  and  _197
REMARK   87  A    between atoms: _197  and  _198
REMARK   88  A    between atoms: _200  and  _202
REMARK   89  A    between atoms: _202  and  _203
REMARK   90  A    between atoms: _202  and  _205
REMARK   91  A    between atoms: _205  and  _206
REMARK   92  A    between atoms: _208  and  _210
REMARK   93  A    between atoms: _210  and  _211
REMARK   94  A    between atoms: _210  and  _213
REMARK   95  A    between atoms: _213  and  _214
REMARK   96  A    between atoms: _219  and  _221
REMARK   97  A    between atoms: _221  and  _222
REMARK   98  A    between atoms: _225  and  _227
REMARK   99  A    between atoms: _227  and  _228
REMARK  100  A    between atoms: _227  and  _230
REMARK  101  A    between atoms: _230  and  _231
REMARK  102  A    between atoms: _234  and  _236
REMARK  103  A    between atoms: _236  and  _237
REMARK  104  A    between atoms: _236  and  _239
REMARK  105  A    between atoms: _242  and  _244
REMARK  106  A    between atoms: _244  and  _245
REMARK  107  A    between atoms: _248  and  _249
REMARK  108  A    between atoms: _254  and  _256
REMARK  109  A    between atoms: _256  and  _257
REMARK  110  A    between atoms: _256  and  _259
REMARK  111  A    between atoms: _259  and  _260
REMARK  112  A    between atoms: _262  and  _264
REMARK  113  A    between atoms: _264  and  _265
REMARK  114  A    between atoms: _264  and  _267
REMARK  115  A    between atoms: _267  and  _268
REMARK  116  A    between atoms: _271  and  _273
REMARK  117  A    between atoms: _273  and  _274
REMARK  118  A    between atoms: _273  and  _276
REMARK  119  A    between atoms: _276  and  _277
REMARK  120  A    between atoms: _277  and  _278
REMARK  121  A    between atoms: _278  and  _279
REMARK  122  A    between atoms: _288  and  _290
REMARK  123  A    between atoms: _290  and  _291
REMARK  124  A    between atoms: _290  and  _293
REMARK  125  A    between atoms: _293  and  _294
REMARK  126  A    between atoms: _297  and  _299
REMARK  127  A    between atoms: _299  and  _300
REMARK  128  A    between atoms: _299  and  _302
REMARK  129  A    between atoms: _302  and  _303
REMARK  130  A    between atoms: _306  and  _307
REMARK  131  A    between atoms: _312  and  _314
REMARK  132  A    between atoms: _314  and  _315
REMARK  133  A    between atoms: _317  and  _319
REMARK  134  A    between atoms: _319  and  _320
REMARK  135  A    between atoms: _319  and  _322
REMARK  136  A    between atoms: _325  and  _327
REMARK  137  A    between atoms: _327  and  _328
REMARK  138  A    between atoms: _330  and  _332
REMARK  139  A    between atoms: _332  and  _333
REMARK  140  A    between atoms: _336  and  _338
REMARK  141  A    between atoms: _338  and  _339
REMARK  142  A    between atoms: _338  and  _341
REMARK  143  A    between atoms: _341  and  _342
REMARK  144  A    between atoms: _342  and  _343
REMARK  145  A    between atoms: _348  and  _350
REMARK  146  A    between atoms: _350  and  _351
REMARK  147  A    between atoms: _353  and  _355
REMARK  148  A    between atoms: _355  and  _356
REMARK  149  A    between atoms: _358  and  _360
REMARK  150  A    between atoms: _360  and  _361
REMARK  151  A    between atoms: _360  and  _363
REMARK  152  A    between atoms: _363  and  _364
REMARK  153  A    between atoms: _367  and  _369
REMARK  154  A    between atoms: _369  and  _370
REMARK  155  A    between atoms: _369  and  _372
REMARK  156  A    between atoms: _375  and  _377
REMARK  157  A    between atoms: _377  and  _378
REMARK  158  A    between atoms: _380  and  _382
REMARK  159  A    between atoms: _382  and  _383
REMARK  160  A    between atoms: _382  and  _385
REMARK  161  A    between atoms: _385  and  _386
REMARK  162  A    between atoms: _386  and  _387
REMARK  163  A    between atoms: _387  and  _388
REMARK  164  A    between atoms: _397  and  _399
REMARK  165  A    between atoms: _399  and  _400
REMARK  166  A    between atoms: _399  and  _402
REMARK  167  A    between atoms: _402  and  _403
REMARK  168  A    between atoms: _405  and  _407
REMARK  169  A    between atoms: _407  and  _408
REMARK  170  A    between atoms: _407  and  _410
REMARK  171  A    between atoms: _410  and  _411
REMARK  172  A    between atoms: _414  and  _416
REMARK  173  A    between atoms: _416  and  _417
REMARK  174  A    between atoms: _416  and  _419
REMARK  175  A    between atoms: _419  and  _420
REMARK  176  A    between atoms: _425  and  _426
REMARK  177  A    between atoms: _428  and  _430
REMARK  178  A    between atoms: _430  and  _431
REMARK  179  A    between atoms: _430  and  _433
REMARK  180  A    between atoms: _433  and  _434
REMARK  181  A    between atoms: _437  and  _439
REMARK  182  A    between atoms: _439  and  _440
REMARK  183  A    between atoms: _443  and  _445
REMARK  184  A    between atoms: _445  and  _446
REMARK  185  A    between atoms: _445  and  _448
REMARK  186  A    between atoms: _448  and  _449
REMARK  187  A    between atoms: _452  and  _454
REMARK  188  A    between atoms: _454  and  _455
REMARK  189  A    between atoms: _454  and  _457
REMARK  190  A    between atoms: _457  and  _458
REMARK  191  A    between atoms: _462  and  _463
REMARK  192  A    between atoms: _468  and  _470
REMARK  193  A    between atoms: _470  and  _471
REMARK  194  A    between atoms: _470  and  _473
REMARK  195  A    between atoms: _473  and  _474
REMARK  196  A    between atoms: _474  and  _475
REMARK  197  A    between atoms: _478  and  _480
REMARK  198  A    between atoms: _480  and  _481
REMARK  199  A    between atoms: _480  and  _483
REMARK  200  A    between atoms: _483  and  _484
REMARK  201  A    between atoms: _487  and  _489
REMARK  202  A    between atoms: _489  and  _490
REMARK  203  A    between atoms: _489  and  _492
REMARK  204  A    between atoms: _492  and  _493
REMARK  205  A    between atoms: _498  and  _500
REMARK  206  A    between atoms: _500  and  _501
REMARK  207  A    between atoms: _500  and  _503
REMARK  208  A    between atoms: _503  and  _504
REMARK  209  A    between atoms: _504  and  _505
REMARK  210  A    between atoms: _505  and  _506
REMARK  211  A    between atoms: _506  and  _507
REMARK  212  A    between atoms: _511  and  _513
REMARK  213  A    between atoms: _513  and  _514
REMARK  214  A    between atoms: _513  and  _516
REMARK  215  A    between atoms: _516  and  _517
REMARK                            x       y       z     vdW  Elec       q    Type
REMARK                         _______ _______ _______ _____ _____    ______ ____
ROOT
ATOM      1  CA  LYS A   1      24.352  43.829  45.291  0.00  0.00    +0.145 C 
ENDROOT
BRANCH   1   2
ATOM      2  C   LYS A   1      24.728  45.235  44.819  0.00  0.00    +0.238 C 
ATOM      3  O   LYS A   1      25.816  45.720  45.111  0.00  0.00    -0.274 OA
ATOM      4  N   ILE A   2      23.803  45.899  44.126  0.00  0.00    -0.298 N 
ATOM      5  H   ILE A   2      22.899  45.427  43.922  0.00  0.00    +0.150 HD
BRANCH   4   6
ATOM      6  CA  ILE A   2      24.006  47.258  43.643  0.00  0.00    +0.137 C 
BRANCH   6   7
ATOM      7  C   ILE A   2      24.213  48.235  44.790  0.00  0.00    +0.227 C 
ATOM      8  O   ILE A   2      25.166  48.996  44.794  0.00  0.00    -0.286 OA
ENDBRANCH   6   7
BRANCH   6   9
ATOM      9  CB  ILE A   2      22.843  47.713  42.724  0.00  0.00    +0.026 C 
ATOM     10  CG2 ILE A   2      23.042  49.171  42.379  0.00  0.00    +0.002 C 
BRANCH   9  11
ATOM     11  CG1 ILE A   2      22.891  46.877  41.462  0.00  0.00    +0.002 C 
ATOM     12  CD1 ILE A   2      21.653  47.081  40.531  0.00  0.00    +0.000 C 
ENDBRANCH   9  11
ENDBRANCH   6   9
ENDBRANCH   4   6
ENDBRANCH   1   2
BRANCH   1  13
ATOM     13  N   LYS A   1      22.953  43.795  45.783  0.00  0.00    -0.238 NA
ATOM     14  H   LYS A   1      22.238  43.256  45.254  0.00  0.00    +0.142 HD
ENDBRANCH   1  13
BRANCH   1  15
ATOM     15  CB  LYS A   1      24.526  42.843  44.158  0.00  0.00    +0.026 C 
BRANCH  15  16
ATOM     16  CG  LYS A   1      24.491  41.398  44.632  0.00  0.00    -0.000 C 
BRANCH  16  17
ATOM     17  CD  LYS A   1      24.651  40.492  43.395  0.00  0.00    -0.024 C 
BRANCH  17  18
ATOM     18  CE  LYS A   1      24.797  39.075  43.853  0.00  0.00    -0.086 C 
BRANCH  18  19
ATOM     19  NZ  LYS A   1      24.961  38.083  42.739  0.00  0.00    +0.380 N 
ATOM     20  HZ1 LYS A   1      25.056  37.127  43.138  0.00  0.00    -0.089 HD
ATOM     21  HZ2 LYS A   1      25.813  38.317  42.191  0.00  0.00    -0.089 HD
ATOM     22  HZ3 LYS A   1      24.127  38.120  42.118  0.00  0.00    -0.089 HD
ENDBRANCH  18  19
ENDBRANCH  17  18
ENDBRANCH  16  17
ENDBRANCH  15  16
ENDBRANCH   1  15
TORSDOF 11
REMARK  Name = ../refined-set-2016/3wjw/3wjw_pocket.pdb
REMARK  215 active torsions:
REMARK  status: ('A' for Active; 'I' for Inactive)
REMARK    1  A    between atoms: _1  and  _3
REMARK    2  A    between atoms: _3  and  _4
REMARK    3  A    between atoms: _3  and  _6
REMARK    4  A    between atoms: _6  and  _7
REMARK    5  A    between atoms: _10  and  _12
REMARK    6  A    between atoms: _12  and  _13
REMARK    7  A    between atoms: _12  and  _15
REMARK    8  A    between atoms: _15  and  _16
REMARK    9  A    between atoms: _19  and  _21
REMARK   10  A    between atoms: _21  and  _22
REMARK   11  A    between atoms: _25  and  _27
REMARK   12  A    between atoms: _27  and  _28
REMARK   13  A    between atoms: _27  and  _30
REMARK   14  A    between atoms: _30  and  _31
REMARK   15  A    between atoms: _31  and  _32
REMARK   16  A    between atoms: _34  and  _36
REMARK   17  A    between atoms: _36  and  _37
REMARK   18  A    between atoms: _36  and  _39
REMARK   19  A    between atoms: _39  and  _40
REMARK   20  A    between atoms: _43  and  _45
REMARK   21  A    between atoms: _45  and  _46
REMARK   22  A    between atoms: _45  and  _48
REMARK   23  A    between atoms: _48  and  _49
REMARK   24  A    between atoms: _49  and  _50
REMARK   25  A    between atoms: _50  and  _51
REMARK   26  A    between atoms: _51  and  _52
REMARK   27  A    between atoms: _56  and  _58
REMARK   28  A    between atoms: _58  and  _59
REMARK   29  A    between atoms: _58  and  _61
REMARK   30  A    between atoms: _61  and  _62
REMARK   31  A    between atoms: _65  and  _67
REMARK   32  A    between atoms: _67  and  _68
REMARK   33  A    between atoms: _70  and  _72
REMARK   34  A    between atoms: _72  and  _73
REMARK   35  A    between atoms: _72  and  _75
REMARK   36  A    between atoms: _75  and  _76
REMARK   37  A    between atoms: _81  and  _82
REMARK   38  A    between atoms: _85  and  _86
REMARK   39  A    between atoms: _91  and  _93
REMARK   40  A    between atoms: _93  and  _94
REMARK   41  A    between atoms: _93  and  _96
REMARK   42  A    between atoms: _96  and  _97
REMARK   43  A    between atoms: _100  and  _102
REMARK   44  A    between atoms: _102  and  _103
REMARK   45  A    between atoms: _102  and  _105
REMARK   46  A    between atoms: _105  and  _106
REMARK   47  A    between atoms: _109  and  _111
REMARK   48  A    between atoms: _111  and  _112
REMARK   49  A    between atoms: _111  and  _114
REMARK   50  A    between atoms: _114  and  _115
REMARK   51  A    between atoms: _118  and  _120
REMARK   52  A    between atoms: _120  and  _121
REMARK   53  A    between atoms: _120  and  _123
REMARK   54  A    between atoms: _123  and  _124
REMARK   55  A    between atoms: _130  and  _132
REMARK   56  A    between atoms: _132  and  _133
REMARK   57  A    between atoms: _132  and  _135
REMARK   58  A    between atoms: _135  and  _136
REMARK   59  A    between atoms: _136  and  _137
REMARK   60  A    between atoms: _137  and  _138
REMARK   61  A    between atoms: _138  and  _139
REMARK   62  A    between atoms: _143  and  _145
REMARK   63  A    between atoms: _145  and  _146
REMARK   64  A    between atoms: _145  and  _148
REMARK   65  A    between atoms: _148  and  _149
REMARK   66  A    between atoms: _152  and  _154
REMARK   67  A    between atoms: _154  and  _155
REMARK   68  A    between atoms: _154  and  _157
REMARK   69  A    between atoms: _157  and  _158
REMARK   70  A    between atoms: _163  and  _165
REMARK   71  A    between atoms: _165  and  _166
REMARK   72  A    between atoms: _165  and  _168
REMARK   73  A    between atoms: _168  and  _169
REMARK   74  A    between atoms: _172  and  _174
REMARK   75  A    between atoms: _174  and  _175
REMARK   76  A    between atoms: _174  and  _177
REMARK   77  A    between atoms: _177  and  _178
REMARK   78  A    between atoms: _181  and  _183
REMARK   79  A    between atoms: _183  and  _184
REMARK   80  A    between atoms: _183  and  _186
REMARK   81  A    between atoms: _186  and  _187
REMARK   82  A    between atoms: _187  and  _188
REMARK   83  A    between atoms: _191  and  _193
REMARK   84  A    between atoms: _193  and  _194
REMARK   85  A    between atoms: _193  and  _196
REMARK   86  A    between atoms: _196  and  _197
REMARK   87  A    between atoms: _197  and  _198
REMARK   88  A    between atoms: _200  and  _202
REMARK   89  A    between atoms: _202  and  _203
REMARK   90  A    between atoms: _202  and  _205
REMARK   91  A    between atoms: _205  and  _206
REMARK   92  A    between atoms: _208  and  _210
REMARK   93  A    between atoms: _210  and  _211
REMARK   94  A    between atoms: _210  and  _213
REMARK   95  A    between atoms: _213  and  _214
REMARK   96  A    between atoms: _219  and  _221
REMARK   97  A    between atoms: _221  and  _222
REMARK   98  A    between atoms: _225  and  _227
REMARK   99  A    between atoms: _227  and  _228
REMARK  100  A    between atoms: _227  and  _230
REMARK  101  A    between atoms: _230  and  _231
REMARK  102  A    between atoms: _234  and  _236
REMARK  103  A    between atoms: _236  and  _237
REMARK  104  A    between atoms: _236  and  _239
REMARK  105  A    between atoms: _242  and  _244
REMARK  106  A    between atoms: _244  and  _245
REMARK  107  A    between atoms: _248  and  _249
REMARK  108  A    between atoms: _254  and  _256
REMARK  109  A    between atoms: _256  and  _257
REMARK  110  A    between atoms: _256  and  _259
REMARK  111  A    between atoms: _259  and  _260
REMARK  112  A    between atoms: _262  and  _264
REMARK  113  A    between atoms: _264  and  _265
REMARK  114  A    between atoms: _264  and  _267
REMARK  115  A    between atoms: _267  and  _268
REMARK  116  A    between atoms: _271  and  _273
REMARK  117  A    between atoms: _273  and  _274
REMARK  118  A    between atoms: _273  and  _276
REMARK  119  A    between atoms: _276  and  _277
REMARK  120  A    between atoms: _277  and  _278
REMARK  121  A    between atoms: _278  and  _279
REMARK  122  A    between atoms: _288  and  _290
REMARK  123  A    between atoms: _290  and  _291
REMARK  124  A    between atoms: _290  and  _293
REMARK  125  A    between atoms: _293  and  _294
REMARK  126  A    between atoms: _297  and  _299
REMARK  127  A    between atoms: _299  and  _300
REMARK  128  A    between atoms: _299  and  _302
REMARK  129  A    between atoms: _302  and  _303
REMARK  130  A    between atoms: _306  and  _307
REMARK  131  A    between atoms: _312  and  _314
REMARK  132  A    between atoms: _314  and  _315
REMARK  133  A    between atoms: _317  and  _319
REMARK  134  A    between atoms: _319  and  _320
REMARK  135  A    between atoms: _319  and  _322
REMARK  136  A    between atoms: _325  and  _327
REMARK  137  A    between atoms: _327  and  _328
REMARK  138  A    between atoms: _330  and  _332
REMARK  139  A    between atoms: _332  and  _333
REMARK  140  A    between atoms: _336  and  _338
REMARK  141  A    between atoms: _338  and  _339
REMARK  142  A    between atoms: _338  and  _341
REMARK  143  A    between atoms: _341  and  _342
REMARK  144  A    between atoms: _342  and  _343
REMARK  145  A    between atoms: _348  and  _350
REMARK  146  A    between atoms: _350  and  _351
REMARK  147  A    between atoms: _353  and  _355
REMARK  148  A    between atoms: _355  and  _356
REMARK  149  A    between atoms: _358  and  _360
REMARK  150  A    between atoms: _360  and  _361
REMARK  151  A    between atoms: _360  and  _363
REMARK  152  A    between atoms: _363  and  _364
REMARK  153  A    between atoms: _367  and  _369
REMARK  154  A    between atoms: _369  and  _370
REMARK  155  A    between atoms: _369  and  _372
REMARK  156  A    between atoms: _375  and  _377
REMARK  157  A    between atoms: _377  and  _378
REMARK  158  A    between atoms: _380  and  _382
REMARK  159  A    between atoms: _382  and  _383
REMARK  160  A    between atoms: _382  and  _385
REMARK  161  A    between atoms: _385  and  _386
REMARK  162  A    between atoms: _386  and  _387
REMARK  163  A    between atoms: _387  and  _388
REMARK  164  A    between atoms: _397  and  _399
REMARK  165  A    between atoms: _399  and  _400
REMARK  166  A    between atoms: _399  and  _402
REMARK  167  A    between atoms: _402  and  _403
REMARK  168  A    between atoms: _405  and  _407
REMARK  169  A    between atoms: _407  and  _408
REMARK  170  A    between atoms: _407  and  _410
REMARK  171  A    between atoms: _410  and  _411
REMARK  172  A    between atoms: _414  and  _416
REMARK  173  A    between atoms: _416  and  _417
REMARK  174  A    between atoms: _416  and  _419
REMARK  175  A    between atoms: _419  and  _420
REMARK  176  A    between atoms: _425  and  _426
REMARK  177  A    between atoms: _428  and  _430
REMARK  178  A    between atoms: _430  and  _431
REMARK  179  A    between atoms: _430  and  _433
REMARK  180  A    between atoms: _433  and  _434
REMARK  181  A    between atoms: _437  and  _439
REMARK  182  A    between atoms: _439  and  _440
REMARK  183  A    between atoms: _443  and  _445
REMARK  184  A    between atoms: _445  and  _446
REMARK  185  A    between atoms: _445  and  _448
REMARK  186  A    between atoms: _448  and  _449
REMARK  187  A    between atoms: _452  and  _454
REMARK  188  A    between atoms: _454  and  _455
REMARK  189  A    between atoms: _454  and  _457
REMARK  190  A    between atoms: _457  and  _458
REMARK  191  A    between atoms: _462  and  _463
REMARK  192  A    between atoms: _468  and  _470
REMARK  193  A    between atoms: _470  and  _471
REMARK  194  A    between atoms: _470  and  _473
REMARK  195  A    between atoms: _473  and  _474
REMARK  196  A    between atoms: _474  and  _475
REMARK  197  A    between atoms: _478  and  _480
REMARK  198  A    between atoms: _480  and  _481
REMARK  199  A    between atoms: _480  and  _483
REMARK  200  A    between atoms: _483  and  _484
REMARK  201  A    between atoms: _487  and  _489
REMARK  202  A    between atoms: _489  and  _490
REMARK  203  A    between atoms: _489  and  _492
REMARK  204  A    between atoms: _492  and  _493
REMARK  205  A    between atoms: _498  and  _500
REMARK  206  A    between atoms: _500  and  _501
REMARK  207  A    between atoms: _500  and  _503
REMARK  208  A    between atoms: _503  and  _504
REMARK  209  A    between atoms: _504  and  _505
REMARK  210  A    between atoms: _505  and  _506
REMARK  211  A    between atoms: _506  and  _507
REMARK  212  A    between atoms: _511  and  _513
REMARK  213  A    between atoms: _513  and  _514
REMARK  214  A    between atoms: _513  and  _516
REMARK  215  A    between atoms: _516  and  _517
REMARK                            x       y       z     vdW  Elec       q    Type
REMARK                         _______ _______ _______ _____ _____    ______ ____
ROOT
ATOM      1  O   HOH     1      18.975  49.236  38.367  0.00  0.00    +0.000 OA
ENDROOT
TORSDOF 0
REMARK  Name = ../refined-set-2016/3wjw/3wjw_pocket.pdb
REMARK  215 active torsions:
REMARK  status: ('A' for Active; 'I' for Inactive)
REMARK    1  A    between atoms: _1  and  _3
REMARK    2  A    between atoms: _3  and  _4
REMARK    3  A    between atoms: _3  and  _6
REMARK    4  A    between atoms: _6  and  _7
REMARK    5  A    between atoms: _10  and  _12
REMARK    6  A    between atoms: _12  and  _13
REMARK    7  A    between atoms: _12  and  _15
REMARK    8  A    between atoms: _15  and  _16
REMARK    9  A    between atoms: _19  and  _21
REMARK   10  A    between atoms: _21  and  _22
REMARK   11  A    between atoms: _25  and  _27
REMARK   12  A    between atoms: _27  and  _28
REMARK   13  A    between atoms: _27  and  _30
REMARK   14  A    between atoms: _30  and  _31
REMARK   15  A    between atoms: _31  and  _32
REMARK   16  A    between atoms: _34  and  _36
REMARK   17  A    between atoms: _36  and  _37
REMARK   18  A    between atoms: _36  and  _39
REMARK   19  A    between atoms: _39  and  _40
REMARK   20  A    between atoms: _43  and  _45
REMARK   21  A    between atoms: _45  and  _46
REMARK   22  A    between atoms: _45  and  _48
REMARK   23  A    between atoms: _48  and  _49
REMARK   24  A    between atoms: _49  and  _50
REMARK   25  A    between atoms: _50  and  _51
REMARK   26  A    between atoms: _51  and  _52
REMARK   27  A    between atoms: _56  and  _58
REMARK   28  A    between atoms: _58  and  _59
REMARK   29  A    between atoms: _58  and  _61
REMARK   30  A    between atoms: _61  and  _62
REMARK   31  A    between atoms: _65  and  _67
REMARK   32  A    between atoms: _67  and  _68
REMARK   33  A    between atoms: _70  and  _72
REMARK   34  A    between atoms: _72  and  _73
REMARK   35  A    between atoms: _72  and  _75
REMARK   36  A    between atoms: _75  and  _76
REMARK   37  A    between atoms: _81  and  _82
REMARK   38  A    between atoms: _85  and  _86
REMARK   39  A    between atoms: _91  and  _93
REMARK   40  A    between atoms: _93  and  _94
REMARK   41  A    between atoms: _93  and  _96
REMARK   42  A    between atoms: _96  and  _97
REMARK   43  A    between atoms: _100  and  _102
REMARK   44  A    between atoms: _102  and  _103
REMARK   45  A    between atoms: _102  and  _105
REMARK   46  A    between atoms: _105  and  _106
REMARK   47  A    between atoms: _109  and  _111
REMARK   48  A    between atoms: _111  and  _112
REMARK   49  A    between atoms: _111  and  _114
REMARK   50  A    between atoms: _114  and  _115
REMARK   51  A    between atoms: _118  and  _120
REMARK   52  A    between atoms: _120  and  _121
REMARK   53  A    between atoms: _120  and  _123
REMARK   54  A    between atoms: _123  and  _124
REMARK   55  A    between atoms: _130  and  _132
REMARK   56  A    between atoms: _132  and  _133
REMARK   57  A    between atoms: _132  and  _135
REMARK   58  A    between atoms: _135  and  _136
REMARK   59  A    between atoms: _136  and  _137
REMARK   60  A    between atoms: _137  and  _138
REMARK   61  A    between atoms: _138  and  _139
REMARK   62  A    between atoms: _143  and  _145
REMARK   63  A    between atoms: _145  and  _146
REMARK   64  A    between atoms: _145  and  _148
REMARK   65  A    between atoms: _148  and  _149
REMARK   66  A    between atoms: _152  and  _154
REMARK   67  A    between atoms: _154  and  _155
REMARK   68  A    between atoms: _154  and  _157
REMARK   69  A    between atoms: _157  and  _158
REMARK   70  A    between atoms: _163  and  _165
REMARK   71  A    between atoms: _165  and  _166
REMARK   72  A    between atoms: _165  and  _168
REMARK   73  A    between atoms: _168  and  _169
REMARK   74  A    between atoms: _172  and  _174
REMARK   75  A    between atoms: _174  and  _175
REMARK   76  A    between atoms: _174  and  _177
REMARK   77  A    between atoms: _177  and  _178
REMARK   78  A    between atoms: _181  and  _183
REMARK   79  A    between atoms: _183  and  _184
REMARK   80  A    between atoms: _183  and  _186
REMARK   81  A    between atoms: _186  and  _187
REMARK   82  A    between atoms: _187  and  _188
REMARK   83  A    between atoms: _191  and  _193
REMARK   84  A    between atoms: _193  and  _194
REMARK   85  A    between atoms: _193  and  _196
REMARK   86  A    between atoms: _196  and  _197
REMARK   87  A    between atoms: _197  and  _198
REMARK   88  A    between atoms: _200  and  _202
REMARK   89  A    between atoms: _202  and  _203
REMARK   90  A    between atoms: _202  and  _205
REMARK   91  A    between atoms: _205  and  _206
REMARK   92  A    between atoms: _208  and  _210
REMARK   93  A    between atoms: _210  and  _211
REMARK   94  A    between atoms: _210  and  _213
REMARK   95  A    between atoms: _213  and  _214
REMARK   96  A    between atoms: _219  and  _221
REMARK   97  A    between atoms: _221  and  _222
REMARK   98  A    between atoms: _225  and  _227
REMARK   99  A    between atoms: _227  and  _228
REMARK  100  A    between atoms: _227  and  _230
REMARK  101  A    between atoms: _230  and  _231
REMARK  102  A    between atoms: _234  and  _236
REMARK  103  A    between atoms: _236  and  _237
REMARK  104  A    between atoms: _236  and  _239
REMARK  105  A    between atoms: _242  and  _244
REMARK  106  A    between atoms: _244  and  _245
REMARK  107  A    between atoms: _248  and  _249
REMARK  108  A    between atoms: _254  and  _256
REMARK  109  A    between atoms: _256  and  _257
REMARK  110  A    between atoms: _256  and  _259
REMARK  111  A    between atoms: _259  and  _260
REMARK  112  A    between atoms: _262  and  _264
REMARK  113  A    between atoms: _264  and  _265
REMARK  114  A    between atoms: _264  and  _267
REMARK  115  A    between atoms: _267  and  _268
REMARK  116  A    between atoms: _271  and  _273
REMARK  117  A    between atoms: _273  and  _274
REMARK  118  A    between atoms: _273  and  _276
REMARK  119  A    between atoms: _276  and  _277
REMARK  120  A    between atoms: _277  and  _278
REMARK  121  A    between atoms: _278  and  _279
REMARK  122  A    between atoms: _288  and  _290
REMARK  123  A    between atoms: _290  and  _291
REMARK  124  A    between atoms: _290  and  _293
REMARK  125  A    between atoms: _293  and  _294
REMARK  126  A    between atoms: _297  and  _299
REMARK  127  A    between atoms: _299  and  _300
REMARK  128  A    between atoms: _299  and  _302
REMARK  129  A    between atoms: _302  and  _303
REMARK  130  A    between atoms: _306  and  _307
REMARK  131  A    between atoms: _312  and  _314
REMARK  132  A    between atoms: _314  and  _315
REMARK  133  A    between atoms: _317  and  _319
REMARK  134  A    between atoms: _319  and  _320
REMARK  135  A    between atoms: _319  and  _322
REMARK  136  A    between atoms: _325  and  _327
REMARK  137  A    between atoms: _327  and  _328
REMARK  138  A    between atoms: _330  and  _332
REMARK  139  A    between atoms: _332  and  _333
REMARK  140  A    between atoms: _336  and  _338
REMARK  141  A    between atoms: _338  and  _339
REMARK  142  A    between atoms: _338  and  _341
REMARK  143  A    between atoms: _341  and  _342
REMARK  144  A    between atoms: _342  and  _343
REMARK  145  A    between atoms: _348  and  _350
REMARK  146  A    between atoms: _350  and  _351
REMARK  147  A    between atoms: _353  and  _355
REMARK  148  A    between atoms: _355  and  _356
REMARK  149  A    between atoms: _358  and  _360
REMARK  150  A    between atoms: _360  and  _361
REMARK  151  A    between atoms: _360  and  _363
REMARK  152  A    between atoms: _363  and  _364
REMARK  153  A    between atoms: _367  and  _369
REMARK  154  A    between atoms: _369  and  _370
REMARK  155  A    between atoms: _369  and  _372
REMARK  156  A    between atoms: _375  and  _377
REMARK  157  A    between atoms: _377  and  _378
REMARK  158  A    between atoms: _380  and  _382
REMARK  159  A    between atoms: _382  and  _383
REMARK  160  A    between atoms: _382  and  _385
REMARK  161  A    between atoms: _385  and  _386
REMARK  162  A    between atoms: _386  and  _387
REMARK  163  A    between atoms: _387  and  _388
REMARK  164  A    between atoms: _397  and  _399
REMARK  165  A    between atoms: _399  and  _400
REMARK  166  A    between atoms: _399  and  _402
REMARK  167  A    between atoms: _402  and  _403
REMARK  168  A    between atoms: _405  and  _407
REMARK  169  A    between atoms: _407  and  _408
REMARK  170  A    between atoms: _407  and  _410
REMARK  171  A    between atoms: _410  and  _411
REMARK  172  A    between atoms: _414  and  _416
REMARK  173  A    between atoms: _416  and  _417
REMARK  174  A    between atoms: _416  and  _419
REMARK  175  A    between atoms: _419  and  _420
REMARK  176  A    between atoms: _425  and  _426
REMARK  177  A    between atoms: _428  and  _430
REMARK  178  A    between atoms: _430  and  _431
REMARK  179  A    between atoms: _430  and  _433
REMARK  180  A    between atoms: _433  and  _434
REMARK  181  A    between atoms: _437  and  _439
REMARK  182  A    between atoms: _439  and  _440
REMARK  183  A    between atoms: _443  and  _445
REMARK  184  A    between atoms: _445  and  _446
REMARK  185  A    between atoms: _445  and  _448
REMARK  186  A    between atoms: _448  and  _449
REMARK  187  A    between atoms: _452  and  _454
REMARK  188  A    between atoms: _454  and  _455
REMARK  189  A    between atoms: _454  and  _457
REMARK  190  A    between atoms: _457  and  _458
REMARK  191  A    between atoms: _462  and  _463
REMARK  192  A    between atoms: _468  and  _470
REMARK  193  A    between atoms: _470  and  _471
REMARK  194  A    between atoms: _470  and  _473
REMARK  195  A    between atoms: _473  and  _474
REMARK  196  A    between atoms: _474  and  _475
REMARK  197  A    between atoms: _478  and  _480
REMARK  198  A    between atoms: _480  and  _481
REMARK  199  A    between atoms: _480  and  _483
REMARK  200  A    between atoms: _483  and  _484
REMARK  201  A    between atoms: _487  and  _489
REMARK  202  A    between atoms: _489  and  _490
REMARK  203  A    between atoms: _489  and  _492
REMARK  204  A    between atoms: _492  and  _493
REMARK  205  A    between atoms: _498  and  _500
REMARK  206  A    between atoms: _500  and  _501
REMARK  207  A    between atoms: _500  and  _503
REMARK  208  A    between atoms: _503  and  _504
REMARK  209  A    between atoms: _504  and  _505
REMARK  210  A    between atoms: _505  and  _506
REMARK  211  A    between atoms: _506  and  _507
REMARK  212  A    between atoms: _511  and  _513
REMARK  213  A    between atoms: _513  and  _514
REMARK  214  A    between atoms: _513  and  _516
REMARK  215  A    between atoms: _516  and  _517
REMARK                            x       y       z     vdW  Elec       q    Type
REMARK                         _______ _______ _______ _____ _____    ______ ____
ROOT
ATOM      1  O   HOH     1      16.116  32.782  38.343  0.00  0.00    +0.000 OA
ENDROOT
TORSDOF 0
REMARK  Name = ../refined-set-2016/3wjw/3wjw_pocket.pdb
REMARK  215 active torsions:
REMARK  status: ('A' for Active; 'I' for Inactive)
REMARK    1  A    between atoms: _1  and  _3
REMARK    2  A    between atoms: _3  and  _4
REMARK    3  A    between atoms: _3  and  _6
REMARK    4  A    between atoms: _6  and  _7
REMARK    5  A    between atoms: _10  and  _12
REMARK    6  A    between atoms: _12  and  _13
REMARK    7  A    between atoms: _12  and  _15
REMARK    8  A    between atoms: _15  and  _16
REMARK    9  A    between atoms: _19  and  _21
REMARK   10  A    between atoms: _21  and  _22
REMARK   11  A    between atoms: _25  and  _27
REMARK   12  A    between atoms: _27  and  _28
REMARK   13  A    between atoms: _27  and  _30
REMARK   14  A    between atoms: _30  and  _31
REMARK   15  A    between atoms: _31  and  _32
REMARK   16  A    between atoms: _34  and  _36
REMARK   17  A    between atoms: _36  and  _37
REMARK   18  A    between atoms: _36  and  _39
REMARK   19  A    between atoms: _39  and  _40
REMARK   20  A    between atoms: _43  and  _45
REMARK   21  A    between atoms: _45  and  _46
REMARK   22  A    between atoms: _45  and  _48
REMARK   23  A    between atoms: _48  and  _49
REMARK   24  A    between atoms: _49  and  _50
REMARK   25  A    between atoms: _50  and  _51
REMARK   26  A    between atoms: _51  and  _52
REMARK   27  A    between atoms: _56  and  _58
REMARK   28  A    between atoms: _58  and  _59
REMARK   29  A    between atoms: _58  and  _61
REMARK   30  A    between atoms: _61  and  _62
REMARK   31  A    between atoms: _65  and  _67
REMARK   32  A    between atoms: _67  and  _68
REMARK   33  A    between atoms: _70  and  _72
REMARK   34  A    between atoms: _72  and  _73
REMARK   35  A    between atoms: _72  and  _75
REMARK   36  A    between atoms: _75  and  _76
REMARK   37  A    between atoms: _81  and  _82
REMARK   38  A    between atoms: _85  and  _86
REMARK   39  A    between atoms: _91  and  _93
REMARK   40  A    between atoms: _93  and  _94
REMARK   41  A    between atoms: _93  and  _96
REMARK   42  A    between atoms: _96  and  _97
REMARK   43  A    between atoms: _100  and  _102
REMARK   44  A    between atoms: _102  and  _103
REMARK   45  A    between atoms: _102  and  _105
REMARK   46  A    between atoms: _105  and  _106
REMARK   47  A    between atoms: _109  and  _111
REMARK   48  A    between atoms: _111  and  _112
REMARK   49  A    between atoms: _111  and  _114
REMARK   50  A    between atoms: _114  and  _115
REMARK   51  A    between atoms: _118  and  _120
REMARK   52  A    between atoms: _120  and  _121
REMARK   53  A    between atoms: _120  and  _123
REMARK   54  A    between atoms: _123  and  _124
REMARK   55  A    between atoms: _130  and  _132
REMARK   56  A    between atoms: _132  and  _133
REMARK   57  A    between atoms: _132  and  _135
REMARK   58  A    between atoms: _135  and  _136
REMARK   59  A    between atoms: _136  and  _137
REMARK   60  A    between atoms: _137  and  _138
REMARK   61  A    between atoms: _138  and  _139
REMARK   62  A    between atoms: _143  and  _145
REMARK   63  A    between atoms: _145  and  _146
REMARK   64  A    between atoms: _145  and  _148
REMARK   65  A    between atoms: _148  and  _149
REMARK   66  A    between atoms: _152  and  _154
REMARK   67  A    between atoms: _154  and  _155
REMARK   68  A    between atoms: _154  and  _157
REMARK   69  A    between atoms: _157  and  _158
REMARK   70  A    between atoms: _163  and  _165
REMARK   71  A    between atoms: _165  and  _166
REMARK   72  A    between atoms: _165  and  _168
REMARK   73  A    between atoms: _168  and  _169
REMARK   74  A    between atoms: _172  and  _174
REMARK   75  A    between atoms: _174  and  _175
REMARK   76  A    between atoms: _174  and  _177
REMARK   77  A    between atoms: _177  and  _178
REMARK   78  A    between atoms: _181  and  _183
REMARK   79  A    between atoms: _183  and  _184
REMARK   80  A    between atoms: _183  and  _186
REMARK   81  A    between atoms: _186  and  _187
REMARK   82  A    between atoms: _187  and  _188
REMARK   83  A    between atoms: _191  and  _193
REMARK   84  A    between atoms: _193  and  _194
REMARK   85  A    between atoms: _193  and  _196
REMARK   86  A    between atoms: _196  and  _197
REMARK   87  A    between atoms: _197  and  _198
REMARK   88  A    between atoms: _200  and  _202
REMARK   89  A    between atoms: _202  and  _203
REMARK   90  A    between atoms: _202  and  _205
REMARK   91  A    between atoms: _205  and  _206
REMARK   92  A    between atoms: _208  and  _210
REMARK   93  A    between atoms: _210  and  _211
REMARK   94  A    between atoms: _210  and  _213
REMARK   95  A    between atoms: _213  and  _214
REMARK   96  A    between atoms: _219  and  _221
REMARK   97  A    between atoms: _221  and  _222
REMARK   98  A    between atoms: _225  and  _227
REMARK   99  A    between atoms: _227  and  _228
REMARK  100  A    between atoms: _227  and  _230
REMARK  101  A    between atoms: _230  and  _231
REMARK  102  A    between atoms: _234  and  _236
REMARK  103  A    between atoms: _236  and  _237
REMARK  104  A    between atoms: _236  and  _239
REMARK  105  A    between atoms: _242  and  _244
REMARK  106  A    between atoms: _244  and  _245
REMARK  107  A    between atoms: _248  and  _249
REMARK  108  A    between atoms: _254  and  _256
REMARK  109  A    between atoms: _256  and  _257
REMARK  110  A    between atoms: _256  and  _259
REMARK  111  A    between atoms: _259  and  _260
REMARK  112  A    between atoms: _262  and  _264
REMARK  113  A    between atoms: _264  and  _265
REMARK  114  A    between atoms: _264  and  _267
REMARK  115  A    between atoms: _267  and  _268
REMARK  116  A    between atoms: _271  and  _273
REMARK  117  A    between atoms: _273  and  _274
REMARK  118  A    between atoms: _273  and  _276
REMARK  119  A    between atoms: _276  and  _277
REMARK  120  A    between atoms: _277  and  _278
REMARK  121  A    between atoms: _278  and  _279
REMARK  122  A    between atoms: _288  and  _290
REMARK  123  A    between atoms: _290  and  _291
REMARK  124  A    between atoms: _290  and  _293
REMARK  125  A    between atoms: _293  and  _294
REMARK  126  A    between atoms: _297  and  _299
REMARK  127  A    between atoms: _299  and  _300
REMARK  128  A    between atoms: _299  and  _302
REMARK  129  A    between atoms: _302  and  _303
REMARK  130  A    between atoms: _306  and  _307
REMARK  131  A    between atoms: _312  and  _314
REMARK  132  A    between atoms: _314  and  _315
REMARK  133  A    between atoms: _317  and  _319
REMARK  134  A    between atoms: _319  and  _320
REMARK  135  A    between atoms: _319  and  _322
REMARK  136  A    between atoms: _325  and  _327
REMARK  137  A    between atoms: _327  and  _328
REMARK  138  A    between atoms: _330  and  _332
REMARK  139  A    between atoms: _332  and  _333
REMARK  140  A    between atoms: _336  and  _338
REMARK  141  A    between atoms: _338  and  _339
REMARK  142  A    between atoms: _338  and  _341
REMARK  143  A    between atoms: _341  and  _342
REMARK  144  A    between atoms: _342  and  _343
REMARK  145  A    between atoms: _348  and  _350
REMARK  146  A    between atoms: _350  and  _351
REMARK  147  A    between atoms: _353  and  _355
REMARK  148  A    between atoms: _355  and  _356
REMARK  149  A    between atoms: _358  and  _360
REMARK  150  A    between atoms: _360  and  _361
REMARK  151  A    between atoms: _360  and  _363
REMARK  152  A    between atoms: _363  and  _364
REMARK  153  A    between atoms: _367  and  _369
REMARK  154  A    between atoms: _369  and  _370
REMARK  155  A    between atoms: _369  and  _372
REMARK  156  A    between atoms: _375  and  _377
REMARK  157  A    between atoms: _377  and  _378
REMARK  158  A    between atoms: _380  and  _382
REMARK  159  A    between atoms: _382  and  _383
REMARK  160  A    between atoms: _382  and  _385
REMARK  161  A    between atoms: _385  and  _386
REMARK  162  A    between atoms: _386  and  _387
REMARK  163  A    between atoms: _387  and  _388
REMARK  164  A    between atoms: _397  and  _399
REMARK  165  A    between atoms: _399  and  _400
REMARK  166  A    between atoms: _399  and  _402
REMARK  167  A    between atoms: _402  and  _403
REMARK  168  A    between atoms: _405  and  _407
REMARK  169  A    between atoms: _407  and  _408
REMARK  170  A    between atoms: _407  and  _410
REMARK  171  A    between atoms: _410  and  _411
REMARK  172  A    between atoms: _414  and  _416
REMARK  173  A    between atoms: _416  and  _417
REMARK  174  A    between atoms: _416  and  _419
REMARK  175  A    between atoms: _419  and  _420
REMARK  176  A    between atoms: _425  and  _426
REMARK  177  A    between atoms: _428  and  _430
REMARK  178  A    between atoms: _430  and  _431
REMARK  179  A    between atoms: _430  and  _433
REMARK  180  A    between atoms: _433  and  _434
REMARK  181  A    between atoms: _437  and  _439
REMARK  182  A    between atoms: _439  and  _440
REMARK  183  A    between atoms: _443  and  _445
REMARK  184  A    between atoms: _445  and  _446
REMARK  185  A    between atoms: _445  and  _448
REMARK  186  A    between atoms: _448  and  _449
REMARK  187  A    between atoms: _452  and  _454
REMARK  188  A    between atoms: _454  and  _455
REMARK  189  A    between atoms: _454  and  _457
REMARK  190  A    between atoms: _457  and  _458
REMARK  191  A    between atoms: _462  and  _463
REMARK  192  A    between atoms: _468  and  _470
REMARK  193  A    between atoms: _470  and  _471
REMARK  194  A    between atoms: _470  and  _473
REMARK  195  A    between atoms: _473  and  _474
REMARK  196  A    between atoms: _474  and  _475
REMARK  197  A    between atoms: _478  and  _480
REMARK  198  A    between atoms: _480  and  _481
REMARK  199  A    between atoms: _480  and  _483
REMARK  200  A    between atoms: _483  and  _484
REMARK  201  A    between atoms: _487  and  _489
REMARK  202  A    between atoms: _489  and  _490
REMARK  203  A    between atoms: _489  and  _492
REMARK  204  A    between atoms: _492  and  _493
REMARK  205  A    between atoms: _498  and  _500
REMARK  206  A    between atoms: _500  and  _501
REMARK  207  A    between atoms: _500  and  _503
REMARK  208  A    between atoms: _503  and  _504
REMARK  209  A    between atoms: _504  and  _505
REMARK  210  A    between atoms: _505  and  _506
REMARK  211  A    between atoms: _506  and  _507
REMARK  212  A    between atoms: _511  and  _513
REMARK  213  A    between atoms: _513  and  _514
REMARK  214  A    between atoms: _513  and  _516
REMARK  215  A    between atoms: _516  and  _517
REMARK                            x       y       z     vdW  Elec       q    Type
REMARK                         _______ _______ _______ _____ _____    ______ ____
ROOT
ATOM      1  O   HOH     1      19.153  31.019  38.169  0.00  0.00    +0.000 OA
ENDROOT
TORSDOF 0
REMARK  Name = ../refined-set-2016/3wjw/3wjw_pocket.pdb
REMARK  215 active torsions:
REMARK  status: ('A' for Active; 'I' for Inactive)
REMARK    1  A    between atoms: _1  and  _3
REMARK    2  A    between atoms: _3  and  _4
REMARK    3  A    between atoms: _3  and  _6
REMARK    4  A    between atoms: _6  and  _7
REMARK    5  A    between atoms: _10  and  _12
REMARK    6  A    between atoms: _12  and  _13
REMARK    7  A    between atoms: _12  and  _15
REMARK    8  A    between atoms: _15  and  _16
REMARK    9  A    between atoms: _19  and  _21
REMARK   10  A    between atoms: _21  and  _22
REMARK   11  A    between atoms: _25  and  _27
REMARK   12  A    between atoms: _27  and  _28
REMARK   13  A    between atoms: _27  and  _30
REMARK   14  A    between atoms: _30  and  _31
REMARK   15  A    between atoms: _31  and  _32
REMARK   16  A    between atoms: _34  and  _36
REMARK   17  A    between atoms: _36  and  _37
REMARK   18  A    between atoms: _36  and  _39
REMARK   19  A    between atoms: _39  and  _40
REMARK   20  A    between atoms: _43  and  _45
REMARK   21  A    between atoms: _45  and  _46
REMARK   22  A    between atoms: _45  and  _48
REMARK   23  A    between atoms: _48  and  _49
REMARK   24  A    between atoms: _49  and  _50
REMARK   25  A    between atoms: _50  and  _51
REMARK   26  A    between atoms: _51  and  _52
REMARK   27  A    between atoms: _56  and  _58
REMARK   28  A    between atoms: _58  and  _59
REMARK   29  A    between atoms: _58  and  _61
REMARK   30  A    between atoms: _61  and  _62
REMARK   31  A    between atoms: _65  and  _67
REMARK   32  A    between atoms: _67  and  _68
REMARK   33  A    between atoms: _70  and  _72
REMARK   34  A    between atoms: _72  and  _73
REMARK   35  A    between atoms: _72  and  _75
REMARK   36  A    between atoms: _75  and  _76
REMARK   37  A    between atoms: _81  and  _82
REMARK   38  A    between atoms: _85  and  _86
REMARK   39  A    between atoms: _91  and  _93
REMARK   40  A    between atoms: _93  and  _94
REMARK   41  A    between atoms: _93  and  _96
REMARK   42  A    between atoms: _96  and  _97
REMARK   43  A    between atoms: _100  and  _102
REMARK   44  A    between atoms: _102  and  _103
REMARK   45  A    between atoms: _102  and  _105
REMARK   46  A    between atoms: _105  and  _106
REMARK   47  A    between atoms: _109  and  _111
REMARK   48  A    between atoms: _111  and  _112
REMARK   49  A    between atoms: _111  and  _114
REMARK   50  A    between atoms: _114  and  _115
REMARK   51  A    between atoms: _118  and  _120
REMARK   52  A    between atoms: _120  and  _121
REMARK   53  A    between atoms: _120  and  _123
REMARK   54  A    between atoms: _123  and  _124
REMARK   55  A    between atoms: _130  and  _132
REMARK   56  A    between atoms: _132  and  _133
REMARK   57  A    between atoms: _132  and  _135
REMARK   58  A    between atoms: _135  and  _136
REMARK   59  A    between atoms: _136  and  _137
REMARK   60  A    between atoms: _137  and  _138
REMARK   61  A    between atoms: _138  and  _139
REMARK   62  A    between atoms: _143  and  _145
REMARK   63  A    between atoms: _145  and  _146
REMARK   64  A    between atoms: _145  and  _148
REMARK   65  A    between atoms: _148  and  _149
REMARK   66  A    between atoms: _152  and  _154
REMARK   67  A    between atoms: _154  and  _155
REMARK   68  A    between atoms: _154  and  _157
REMARK   69  A    between atoms: _157  and  _158
REMARK   70  A    between atoms: _163  and  _165
REMARK   71  A    between atoms: _165  and  _166
REMARK   72  A    between atoms: _165  and  _168
REMARK   73  A    between atoms: _168  and  _169
REMARK   74  A    between atoms: _172  and  _174
REMARK   75  A    between atoms: _174  and  _175
REMARK   76  A    between atoms: _174  and  _177
REMARK   77  A    between atoms: _177  and  _178
REMARK   78  A    between atoms: _181  and  _183
REMARK   79  A    between atoms: _183  and  _184
REMARK   80  A    between atoms: _183  and  _186
REMARK   81  A    between atoms: _186  and  _187
REMARK   82  A    between atoms: _187  and  _188
REMARK   83  A    between atoms: _191  and  _193
REMARK   84  A    between atoms: _193  and  _194
REMARK   85  A    between atoms: _193  and  _196
REMARK   86  A    between atoms: _196  and  _197
REMARK   87  A    between atoms: _197  and  _198
REMARK   88  A    between atoms: _200  and  _202
REMARK   89  A    between atoms: _202  and  _203
REMARK   90  A    between atoms: _202  and  _205
REMARK   91  A    between atoms: _205  and  _206
REMARK   92  A    between atoms: _208  and  _210
REMARK   93  A    between atoms: _210  and  _211
REMARK   94  A    between atoms: _210  and  _213
REMARK   95  A    between atoms: _213  and  _214
REMARK   96  A    between atoms: _219  and  _221
REMARK   97  A    between atoms: _221  and  _222
REMARK   98  A    between atoms: _225  and  _227
REMARK   99  A    between atoms: _227  and  _228
REMARK  100  A    between atoms: _227  and  _230
REMARK  101  A    between atoms: _230  and  _231
REMARK  102  A    between atoms: _234  and  _236
REMARK  103  A    between atoms: _236  and  _237
REMARK  104  A    between atoms: _236  and  _239
REMARK  105  A    between atoms: _242  and  _244
REMARK  106  A    between atoms: _244  and  _245
REMARK  107  A    between atoms: _248  and  _249
REMARK  108  A    between atoms: _254  and  _256
REMARK  109  A    between atoms: _256  and  _257
REMARK  110  A    between atoms: _256  and  _259
REMARK  111  A    between atoms: _259  and  _260
REMARK  112  A    between atoms: _262  and  _264
REMARK  113  A    between atoms: _264  and  _265
REMARK  114  A    between atoms: _264  and  _267
REMARK  115  A    between atoms: _267  and  _268
REMARK  116  A    between atoms: _271  and  _273
REMARK  117  A    between atoms: _273  and  _274
REMARK  118  A    between atoms: _273  and  _276
REMARK  119  A    between atoms: _276  and  _277
REMARK  120  A    between atoms: _277  and  _278
REMARK  121  A    between atoms: _278  and  _279
REMARK  122  A    between atoms: _288  and  _290
REMARK  123  A    between atoms: _290  and  _291
REMARK  124  A    between atoms: _290  and  _293
REMARK  125  A    between atoms: _293  and  _294
REMARK  126  A    between atoms: _297  and  _299
REMARK  127  A    between atoms: _299  and  _300
REMARK  128  A    between atoms: _299  and  _302
REMARK  129  A    between atoms: _302  and  _303
REMARK  130  A    between atoms: _306  and  _307
REMARK  131  A    between atoms: _312  and  _314
REMARK  132  A    between atoms: _314  and  _315
REMARK  133  A    between atoms: _317  and  _319
REMARK  134  A    between atoms: _319  and  _320
REMARK  135  A    between atoms: _319  and  _322
REMARK  136  A    between atoms: _325  and  _327
REMARK  137  A    between atoms: _327  and  _328
REMARK  138  A    between atoms: _330  and  _332
REMARK  139  A    between atoms: _332  and  _333
REMARK  140  A    between atoms: _336  and  _338
REMARK  141  A    between atoms: _338  and  _339
REMARK  142  A    between atoms: _338  and  _341
REMARK  143  A    between atoms: _341  and  _342
REMARK  144  A    between atoms: _342  and  _343
REMARK  145  A    between atoms: _348  and  _350
REMARK  146  A    between atoms: _350  and  _351
REMARK  147  A    between atoms: _353  and  _355
REMARK  148  A    between atoms: _355  and  _356
REMARK  149  A    between atoms: _358  and  _360
REMARK  150  A    between atoms: _360  and  _361
REMARK  151  A    between atoms: _360  and  _363
REMARK  152  A    between atoms: _363  and  _364
REMARK  153  A    between atoms: _367  and  _369
REMARK  154  A    between atoms: _369  and  _370
REMARK  155  A    between atoms: _369  and  _372
REMARK  156  A    between atoms: _375  and  _377
REMARK  157  A    between atoms: _377  and  _378
REMARK  158  A    between atoms: _380  and  _382
REMARK  159  A    between atoms: _382  and  _383
REMARK  160  A    between atoms: _382  and  _385
REMARK  161  A    between atoms: _385  and  _386
REMARK  162  A    between atoms: _386  and  _387
REMARK  163  A    between atoms: _387  and  _388
REMARK  164  A    between atoms: _397  and  _399
REMARK  165  A    between atoms: _399  and  _400
REMARK  166  A    between atoms: _399  and  _402
REMARK  167  A    between atoms: _402  and  _403
REMARK  168  A    between atoms: _405  and  _407
REMARK  169  A    between atoms: _407  and  _408
REMARK  170  A    between atoms: _407  and  _410
REMARK  171  A    between atoms: _410  and  _411
REMARK  172  A    between atoms: _414  and  _416
REMARK  173  A    between atoms: _416  and  _417
REMARK  174  A    between atoms: _416  and  _419
REMARK  175  A    between atoms: _419  and  _420
REMARK  176  A    between atoms: _425  and  _426
REMARK  177  A    between atoms: _428  and  _430
REMARK  178  A    between atoms: _430  and  _431
REMARK  179  A    between atoms: _430  and  _433
REMARK  180  A    between atoms: _433  and  _434
REMARK  181  A    between atoms: _437  and  _439
REMARK  182  A    between atoms: _439  and  _440
REMARK  183  A    between atoms: _443  and  _445
REMARK  184  A    between atoms: _445  and  _446
REMARK  185  A    between atoms: _445  and  _448
REMARK  186  A    between atoms: _448  and  _449
REMARK  187  A    between atoms: _452  and  _454
REMARK  188  A    between atoms: _454  and  _455
REMARK  189  A    between atoms: _454  and  _457
REMARK  190  A    between atoms: _457  and  _458
REMARK  191  A    between atoms: _462  and  _463
REMARK  192  A    between atoms: _468  and  _470
REMARK  193  A    between atoms: _470  and  _471
REMARK  194  A    between atoms: _470  and  _473
REMARK  195  A    between atoms: _473  and  _474
REMARK  196  A    between atoms: _474  and  _475
REMARK  197  A    between atoms: _478  and  _480
REMARK  198  A    between atoms: _480  and  _481
REMARK  199  A    between atoms: _480  and  _483
REMARK  200  A    between atoms: _483  and  _484
REMARK  201  A    between atoms: _487  and  _489
REMARK  202  A    between atoms: _489  and  _490
REMARK  203  A    between atoms: _489  and  _492
REMARK  204  A    between atoms: _492  and  _493
REMARK  205  A    between atoms: _498  and  _500
REMARK  206  A    between atoms: _500  and  _501
REMARK  207  A    between atoms: _500  and  _503
REMARK  208  A    between atoms: _503  and  _504
REMARK  209  A    between atoms: _504  and  _505
REMARK  210  A    between atoms: _505  and  _506
REMARK  211  A    between atoms: _506  and  _507
REMARK  212  A    between atoms: _511  and  _513
REMARK  213  A    between atoms: _513  and  _514
REMARK  214  A    between atoms: _513  and  _516
REMARK  215  A    between atoms: _516  and  _517
REMARK                            x       y       z     vdW  Elec       q    Type
REMARK                         _______ _______ _______ _____ _____    ______ ____
ROOT
ATOM      1  O   HOH     1      26.499  41.748  36.712  0.00  0.00    +0.000 OA
ENDROOT
TORSDOF 0
REMARK  Name = ../refined-set-2016/3wjw/3wjw_pocket.pdb
REMARK  215 active torsions:
REMARK  status: ('A' for Active; 'I' for Inactive)
REMARK    1  A    between atoms: _1  and  _3
REMARK    2  A    between atoms: _3  and  _4
REMARK    3  A    between atoms: _3  and  _6
REMARK    4  A    between atoms: _6  and  _7
REMARK    5  A    between atoms: _10  and  _12
REMARK    6  A    between atoms: _12  and  _13
REMARK    7  A    between atoms: _12  and  _15
REMARK    8  A    between atoms: _15  and  _16
REMARK    9  A    between atoms: _19  and  _21
REMARK   10  A    between atoms: _21  and  _22
REMARK   11  A    between atoms: _25  and  _27
REMARK   12  A    between atoms: _27  and  _28
REMARK   13  A    between atoms: _27  and  _30
REMARK   14  A    between atoms: _30  and  _31
REMARK   15  A    between atoms: _31  and  _32
REMARK   16  A    between atoms: _34  and  _36
REMARK   17  A    between atoms: _36  and  _37
REMARK   18  A    between atoms: _36  and  _39
REMARK   19  A    between atoms: _39  and  _40
REMARK   20  A    between atoms: _43  and  _45
REMARK   21  A    between atoms: _45  and  _46
REMARK   22  A    between atoms: _45  and  _48
REMARK   23  A    between atoms: _48  and  _49
REMARK   24  A    between atoms: _49  and  _50
REMARK   25  A    between atoms: _50  and  _51
REMARK   26  A    between atoms: _51  and  _52
REMARK   27  A    between atoms: _56  and  _58
REMARK   28  A    between atoms: _58  and  _59
REMARK   29  A    between atoms: _58  and  _61
REMARK   30  A    between atoms: _61  and  _62
REMARK   31  A    between atoms: _65  and  _67
REMARK   32  A    between atoms: _67  and  _68
REMARK   33  A    between atoms: _70  and  _72
REMARK   34  A    between atoms: _72  and  _73
REMARK   35  A    between atoms: _72  and  _75
REMARK   36  A    between atoms: _75  and  _76
REMARK   37  A    between atoms: _81  and  _82
REMARK   38  A    between atoms: _85  and  _86
REMARK   39  A    between atoms: _91  and  _93
REMARK   40  A    between atoms: _93  and  _94
REMARK   41  A    between atoms: _93  and  _96
REMARK   42  A    between atoms: _96  and  _97
REMARK   43  A    between atoms: _100  and  _102
REMARK   44  A    between atoms: _102  and  _103
REMARK   45  A    between atoms: _102  and  _105
REMARK   46  A    between atoms: _105  and  _106
REMARK   47  A    between atoms: _109  and  _111
REMARK   48  A    between atoms: _111  and  _112
REMARK   49  A    between atoms: _111  and  _114
REMARK   50  A    between atoms: _114  and  _115
REMARK   51  A    between atoms: _118  and  _120
REMARK   52  A    between atoms: _120  and  _121
REMARK   53  A    between atoms: _120  and  _123
REMARK   54  A    between atoms: _123  and  _124
REMARK   55  A    between atoms: _130  and  _132
REMARK   56  A    between atoms: _132  and  _133
REMARK   57  A    between atoms: _132  and  _135
REMARK   58  A    between atoms: _135  and  _136
REMARK   59  A    between atoms: _136  and  _137
REMARK   60  A    between atoms: _137  and  _138
REMARK   61  A    between atoms: _138  and  _139
REMARK   62  A    between atoms: _143  and  _145
REMARK   63  A    between atoms: _145  and  _146
REMARK   64  A    between atoms: _145  and  _148
REMARK   65  A    between atoms: _148  and  _149
REMARK   66  A    between atoms: _152  and  _154
REMARK   67  A    between atoms: _154  and  _155
REMARK   68  A    between atoms: _154  and  _157
REMARK   69  A    between atoms: _157  and  _158
REMARK   70  A    between atoms: _163  and  _165
REMARK   71  A    between atoms: _165  and  _166
REMARK   72  A    between atoms: _165  and  _168
REMARK   73  A    between atoms: _168  and  _169
REMARK   74  A    between atoms: _172  and  _174
REMARK   75  A    between atoms: _174  and  _175
REMARK   76  A    between atoms: _174  and  _177
REMARK   77  A    between atoms: _177  and  _178
REMARK   78  A    between atoms: _181  and  _183
REMARK   79  A    between atoms: _183  and  _184
REMARK   80  A    between atoms: _183  and  _186
REMARK   81  A    between atoms: _186  and  _187
REMARK   82  A    between atoms: _187  and  _188
REMARK   83  A    between atoms: _191  and  _193
REMARK   84  A    between atoms: _193  and  _194
REMARK   85  A    between atoms: _193  and  _196
REMARK   86  A    between atoms: _196  and  _197
REMARK   87  A    between atoms: _197  and  _198
REMARK   88  A    between atoms: _200  and  _202
REMARK   89  A    between atoms: _202  and  _203
REMARK   90  A    between atoms: _202  and  _205
REMARK   91  A    between atoms: _205  and  _206
REMARK   92  A    between atoms: _208  and  _210
REMARK   93  A    between atoms: _210  and  _211
REMARK   94  A    between atoms: _210  and  _213
REMARK   95  A    between atoms: _213  and  _214
REMARK   96  A    between atoms: _219  and  _221
REMARK   97  A    between atoms: _221  and  _222
REMARK   98  A    between atoms: _225  and  _227
REMARK   99  A    between atoms: _227  and  _228
REMARK  100  A    between atoms: _227  and  _230
REMARK  101  A    between atoms: _230  and  _231
REMARK  102  A    between atoms: _234  and  _236
REMARK  103  A    between atoms: _236  and  _237
REMARK  104  A    between atoms: _236  and  _239
REMARK  105  A    between atoms: _242  and  _244
REMARK  106  A    between atoms: _244  and  _245
REMARK  107  A    between atoms: _248  and  _249
REMARK  108  A    between atoms: _254  and  _256
REMARK  109  A    between atoms: _256  and  _257
REMARK  110  A    between atoms: _256  and  _259
REMARK  111  A    between atoms: _259  and  _260
REMARK  112  A    between atoms: _262  and  _264
REMARK  113  A    between atoms: _264  and  _265
REMARK  114  A    between atoms: _264  and  _267
REMARK  115  A    between atoms: _267  and  _268
REMARK  116  A    between atoms: _271  and  _273
REMARK  117  A    between atoms: _273  and  _274
REMARK  118  A    between atoms: _273  and  _276
REMARK  119  A    between atoms: _276  and  _277
REMARK  120  A    between atoms: _277  and  _278
REMARK  121  A    between atoms: _278  and  _279
REMARK  122  A    between atoms: _288  and  _290
REMARK  123  A    between atoms: _290  and  _291
REMARK  124  A    between atoms: _290  and  _293
REMARK  125  A    between atoms: _293  and  _294
REMARK  126  A    between atoms: _297  and  _299
REMARK  127  A    between atoms: _299  and  _300
REMARK  128  A    between atoms: _299  and  _302
REMARK  129  A    between atoms: _302  and  _303
REMARK  130  A    between atoms: _306  and  _307
REMARK  131  A    between atoms: _312  and  _314
REMARK  132  A    between atoms: _314  and  _315
REMARK  133  A    between atoms: _317  and  _319
REMARK  134  A    between atoms: _319  and  _320
REMARK  135  A    between atoms: _319  and  _322
REMARK  136  A    between atoms: _325  and  _327
REMARK  137  A    between atoms: _327  and  _328
REMARK  138  A    between atoms: _330  and  _332
REMARK  139  A    between atoms: _332  and  _333
REMARK  140  A    between atoms: _336  and  _338
REMARK  141  A    between atoms: _338  and  _339
REMARK  142  A    between atoms: _338  and  _341
REMARK  143  A    between atoms: _341  and  _342
REMARK  144  A    between atoms: _342  and  _343
REMARK  145  A    between atoms: _348  and  _350
REMARK  146  A    between atoms: _350  and  _351
REMARK  147  A    between atoms: _353  and  _355
REMARK  148  A    between atoms: _355  and  _356
REMARK  149  A    between atoms: _358  and  _360
REMARK  150  A    between atoms: _360  and  _361
REMARK  151  A    between atoms: _360  and  _363
REMARK  152  A    between atoms: _363  and  _364
REMARK  153  A    between atoms: _367  and  _369
REMARK  154  A    between atoms: _369  and  _370
REMARK  155  A    between atoms: _369  and  _372
REMARK  156  A    between atoms: _375  and  _377
REMARK  157  A    between atoms: _377  and  _378
REMARK  158  A    between atoms: _380  and  _382
REMARK  159  A    between atoms: _382  and  _383
REMARK  160  A    between atoms: _382  and  _385
REMARK  161  A    between atoms: _385  and  _386
REMARK  162  A    between atoms: _386  and  _387
REMARK  163  A    between atoms: _387  and  _388
REMARK  164  A    between atoms: _397  and  _399
REMARK  165  A    between atoms: _399  and  _400
REMARK  166  A    between atoms: _399  and  _402
REMARK  167  A    between atoms: _402  and  _403
REMARK  168  A    between atoms: _405  and  _407
REMARK  169  A    between atoms: _407  and  _408
REMARK  170  A    between atoms: _407  and  _410
REMARK  171  A    between atoms: _410  and  _411
REMARK  172  A    between atoms: _414  and  _416
REMARK  173  A    between atoms: _416  and  _417
REMARK  174  A    between atoms: _416  and  _419
REMARK  175  A    between atoms: _419  and  _420
REMARK  176  A    between atoms: _425  and  _426
REMARK  177  A    between atoms: _428  and  _430
REMARK  178  A    between atoms: _430  and  _431
REMARK  179  A    between atoms: _430  and  _433
REMARK  180  A    between atoms: _433  and  _434
REMARK  181  A    between atoms: _437  and  _439
REMARK  182  A    between atoms: _439  and  _440
REMARK  183  A    between atoms: _443  and  _445
REMARK  184  A    between atoms: _445  and  _446
REMARK  185  A    between atoms: _445  and  _448
REMARK  186  A    between atoms: _448  and  _449
REMARK  187  A    between atoms: _452  and  _454
REMARK  188  A    between atoms: _454  and  _455
REMARK  189  A    between atoms: _454  and  _457
REMARK  190  A    between atoms: _457  and  _458
REMARK  191  A    between atoms: _462  and  _463
REMARK  192  A    between atoms: _468  and  _470
REMARK  193  A    between atoms: _470  and  _471
REMARK  194  A    between atoms: _470  and  _473
REMARK  195  A    between atoms: _473  and  _474
REMARK  196  A    between atoms: _474  and  _475
REMARK  197  A    between atoms: _478  and  _480
REMARK  198  A    between atoms: _480  and  _481
REMARK  199  A    between atoms: _480  and  _483
REMARK  200  A    between atoms: _483  and  _484
REMARK  201  A    between atoms: _487  and  _489
REMARK  202  A    between atoms: _489  and  _490
REMARK  203  A    between atoms: _489  and  _492
REMARK  204  A    between atoms: _492  and  _493
REMARK  205  A    between atoms: _498  and  _500
REMARK  206  A    between atoms: _500  and  _501
REMARK  207  A    between atoms: _500  and  _503
REMARK  208  A    between atoms: _503  and  _504
REMARK  209  A    between atoms: _504  and  _505
REMARK  210  A    between atoms: _505  and  _506
REMARK  211  A    between atoms: _506  and  _507
REMARK  212  A    between atoms: _511  and  _513
REMARK  213  A    between atoms: _513  and  _514
REMARK  214  A    between atoms: _513  and  _516
REMARK  215  A    between atoms: _516  and  _517
REMARK                            x       y       z     vdW  Elec       q    Type
REMARK                         _______ _______ _______ _____ _____    ______ ____
ROOT
ATOM      1  O   HOH     1      11.205  39.779  33.227  0.00  0.00    +0.000 OA
ENDROOT
TORSDOF 0
REMARK  Name = ../refined-set-2016/3wjw/3wjw_pocket.pdb
REMARK  215 active torsions:
REMARK  status: ('A' for Active; 'I' for Inactive)
REMARK    1  A    between atoms: _1  and  _3
REMARK    2  A    between atoms: _3  and  _4
REMARK    3  A    between atoms: _3  and  _6
REMARK    4  A    between atoms: _6  and  _7
REMARK    5  A    between atoms: _10  and  _12
REMARK    6  A    between atoms: _12  and  _13
REMARK    7  A    between atoms: _12  and  _15
REMARK    8  A    between atoms: _15  and  _16
REMARK    9  A    between atoms: _19  and  _21
REMARK   10  A    between atoms: _21  and  _22
REMARK   11  A    between atoms: _25  and  _27
REMARK   12  A    between atoms: _27  and  _28
REMARK   13  A    between atoms: _27  and  _30
REMARK   14  A    between atoms: _30  and  _31
REMARK   15  A    between atoms: _31  and  _32
REMARK   16  A    between atoms: _34  and  _36
REMARK   17  A    between atoms: _36  and  _37
REMARK   18  A    between atoms: _36  and  _39
REMARK   19  A    between atoms: _39  and  _40
REMARK   20  A    between atoms: _43  and  _45
REMARK   21  A    between atoms: _45  and  _46
REMARK   22  A    between atoms: _45  and  _48
REMARK   23  A    between atoms: _48  and  _49
REMARK   24  A    between atoms: _49  and  _50
REMARK   25  A    between atoms: _50  and  _51
REMARK   26  A    between atoms: _51  and  _52
REMARK   27  A    between atoms: _56  and  _58
REMARK   28  A    between atoms: _58  and  _59
REMARK   29  A    between atoms: _58  and  _61
REMARK   30  A    between atoms: _61  and  _62
REMARK   31  A    between atoms: _65  and  _67
REMARK   32  A    between atoms: _67  and  _68
REMARK   33  A    between atoms: _70  and  _72
REMARK   34  A    between atoms: _72  and  _73
REMARK   35  A    between atoms: _72  and  _75
REMARK   36  A    between atoms: _75  and  _76
REMARK   37  A    between atoms: _81  and  _82
REMARK   38  A    between atoms: _85  and  _86
REMARK   39  A    between atoms: _91  and  _93
REMARK   40  A    between atoms: _93  and  _94
REMARK   41  A    between atoms: _93  and  _96
REMARK   42  A    between atoms: _96  and  _97
REMARK   43  A    between atoms: _100  and  _102
REMARK   44  A    between atoms: _102  and  _103
REMARK   45  A    between atoms: _102  and  _105
REMARK   46  A    between atoms: _105  and  _106
REMARK   47  A    between atoms: _109  and  _111
REMARK   48  A    between atoms: _111  and  _112
REMARK   49  A    between atoms: _111  and  _114
REMARK   50  A    between atoms: _114  and  _115
REMARK   51  A    between atoms: _118  and  _120
REMARK   52  A    between atoms: _120  and  _121
REMARK   53  A    between atoms: _120  and  _123
REMARK   54  A    between atoms: _123  and  _124
REMARK   55  A    between atoms: _130  and  _132
REMARK   56  A    between atoms: _132  and  _133
REMARK   57  A    between atoms: _132  and  _135
REMARK   58  A    between atoms: _135  and  _136
REMARK   59  A    between atoms: _136  and  _137
REMARK   60  A    between atoms: _137  and  _138
REMARK   61  A    between atoms: _138  and  _139
REMARK   62  A    between atoms: _143  and  _145
REMARK   63  A    between atoms: _145  and  _146
REMARK   64  A    between atoms: _145  and  _148
REMARK   65  A    between atoms: _148  and  _149
REMARK   66  A    between atoms: _152  and  _154
REMARK   67  A    between atoms: _154  and  _155
REMARK   68  A    between atoms: _154  and  _157
REMARK   69  A    between atoms: _157  and  _158
REMARK   70  A    between atoms: _163  and  _165
REMARK   71  A    between atoms: _165  and  _166
REMARK   72  A    between atoms: _165  and  _168
REMARK   73  A    between atoms: _168  and  _169
REMARK   74  A    between atoms: _172  and  _174
REMARK   75  A    between atoms: _174  and  _175
REMARK   76  A    between atoms: _174  and  _177
REMARK   77  A    between atoms: _177  and  _178
REMARK   78  A    between atoms: _181  and  _183
REMARK   79  A    between atoms: _183  and  _184
REMARK   80  A    between atoms: _183  and  _186
REMARK   81  A    between atoms: _186  and  _187
REMARK   82  A    between atoms: _187  and  _188
REMARK   83  A    between atoms: _191  and  _193
REMARK   84  A    between atoms: _193  and  _194
REMARK   85  A    between atoms: _193  and  _196
REMARK   86  A    between atoms: _196  and  _197
REMARK   87  A    between atoms: _197  and  _198
REMARK   88  A    between atoms: _200  and  _202
REMARK   89  A    between atoms: _202  and  _203
REMARK   90  A    between atoms: _202  and  _205
REMARK   91  A    between atoms: _205  and  _206
REMARK   92  A    between atoms: _208  and  _210
REMARK   93  A    between atoms: _210  and  _211
REMARK   94  A    between atoms: _210  and  _213
REMARK   95  A    between atoms: _213  and  _214
REMARK   96  A    between atoms: _219  and  _221
REMARK   97  A    between atoms: _221  and  _222
REMARK   98  A    between atoms: _225  and  _227
REMARK   99  A    between atoms: _227  and  _228
REMARK  100  A    between atoms: _227  and  _230
REMARK  101  A    between atoms: _230  and  _231
REMARK  102  A    between atoms: _234  and  _236
REMARK  103  A    between atoms: _236  and  _237
REMARK  104  A    between atoms: _236  and  _239
REMARK  105  A    between atoms: _242  and  _244
REMARK  106  A    between atoms: _244  and  _245
REMARK  107  A    between atoms: _248  and  _249
REMARK  108  A    between atoms: _254  and  _256
REMARK  109  A    between atoms: _256  and  _257
REMARK  110  A    between atoms: _256  and  _259
REMARK  111  A    between atoms: _259  and  _260
REMARK  112  A    between atoms: _262  and  _264
REMARK  113  A    between atoms: _264  and  _265
REMARK  114  A    between atoms: _264  and  _267
REMARK  115  A    between atoms: _267  and  _268
REMARK  116  A    between atoms: _271  and  _273
REMARK  117  A    between atoms: _273  and  _274
REMARK  118  A    between atoms: _273  and  _276
REMARK  119  A    between atoms: _276  and  _277
REMARK  120  A    between atoms: _277  and  _278
REMARK  121  A    between atoms: _278  and  _279
REMARK  122  A    between atoms: _288  and  _290
REMARK  123  A    between atoms: _290  and  _291
REMARK  124  A    between atoms: _290  and  _293
REMARK  125  A    between atoms: _293  and  _294
REMARK  126  A    between atoms: _297  and  _299
REMARK  127  A    between atoms: _299  and  _300
REMARK  128  A    between atoms: _299  and  _302
REMARK  129  A    between atoms: _302  and  _303
REMARK  130  A    between atoms: _306  and  _307
REMARK  131  A    between atoms: _312  and  _314
REMARK  132  A    between atoms: _314  and  _315
REMARK  133  A    between atoms: _317  and  _319
REMARK  134  A    between atoms: _319  and  _320
REMARK  135  A    between atoms: _319  and  _322
REMARK  136  A    between atoms: _325  and  _327
REMARK  137  A    between atoms: _327  and  _328
REMARK  138  A    between atoms: _330  and  _332
REMARK  139  A    between atoms: _332  and  _333
REMARK  140  A    between atoms: _336  and  _338
REMARK  141  A    between atoms: _338  and  _339
REMARK  142  A    between atoms: _338  and  _341
REMARK  143  A    between atoms: _341  and  _342
REMARK  144  A    between atoms: _342  and  _343
REMARK  145  A    between atoms: _348  and  _350
REMARK  146  A    between atoms: _350  and  _351
REMARK  147  A    between atoms: _353  and  _355
REMARK  148  A    between atoms: _355  and  _356
REMARK  149  A    between atoms: _358  and  _360
REMARK  150  A    between atoms: _360  and  _361
REMARK  151  A    between atoms: _360  and  _363
REMARK  152  A    between atoms: _363  and  _364
REMARK  153  A    between atoms: _367  and  _369
REMARK  154  A    between atoms: _369  and  _370
REMARK  155  A    between atoms: _369  and  _372
REMARK  156  A    between atoms: _375  and  _377
REMARK  157  A    between atoms: _377  and  _378
REMARK  158  A    between atoms: _380  and  _382
REMARK  159  A    between atoms: _382  and  _383
REMARK  160  A    between atoms: _382  and  _385
REMARK  161  A    between atoms: _385  and  _386
REMARK  162  A    between atoms: _386  and  _387
REMARK  163  A    between atoms: _387  and  _388
REMARK  164  A    between atoms: _397  and  _399
REMARK  165  A    between atoms: _399  and  _400
REMARK  166  A    between atoms: _399  and  _402
REMARK  167  A    between atoms: _402  and  _403
REMARK  168  A    between atoms: _405  and  _407
REMARK  169  A    between atoms: _407  and  _408
REMARK  170  A    between atoms: _407  and  _410
REMARK  171  A    between atoms: _410  and  _411
REMARK  172  A    between atoms: _414  and  _416
REMARK  173  A    between atoms: _416  and  _417
REMARK  174  A    between atoms: _416  and  _419
REMARK  175  A    between atoms: _419  and  _420
REMARK  176  A    between atoms: _425  and  _426
REMARK  177  A    between atoms: _428  and  _430
REMARK  178  A    between atoms: _430  and  _431
REMARK  179  A    between atoms: _430  and  _433
REMARK  180  A    between atoms: _433  and  _434
REMARK  181  A    between atoms: _437  and  _439
REMARK  182  A    between atoms: _439  and  _440
REMARK  183  A    between atoms: _443  and  _445
REMARK  184  A    between atoms: _445  and  _446
REMARK  185  A    between atoms: _445  and  _448
REMARK  186  A    between atoms: _448  and  _449
REMARK  187  A    between atoms: _452  and  _454
REMARK  188  A    between atoms: _454  and  _455
REMARK  189  A    between atoms: _454  and  _457
REMARK  190  A    between atoms: _457  and  _458
REMARK  191  A    between atoms: _462  and  _463
REMARK  192  A    between atoms: _468  and  _470
REMARK  193  A    between atoms: _470  and  _471
REMARK  194  A    between atoms: _470  and  _473
REMARK  195  A    between atoms: _473  and  _474
REMARK  196  A    between atoms: _474  and  _475
REMARK  197  A    between atoms: _478  and  _480
REMARK  198  A    between atoms: _480  and  _481
REMARK  199  A    between atoms: _480  and  _483
REMARK  200  A    between atoms: _483  and  _484
REMARK  201  A    between atoms: _487  and  _489
REMARK  202  A    between atoms: _489  and  _490
REMARK  203  A    between atoms: _489  and  _492
REMARK  204  A    between atoms: _492  and  _493
REMARK  205  A    between atoms: _498  and  _500
REMARK  206  A    between atoms: _500  and  _501
REMARK  207  A    between atoms: _500  and  _503
REMARK  208  A    between atoms: _503  and  _504
REMARK  209  A    between atoms: _504  and  _505
REMARK  210  A    between atoms: _505  and  _506
REMARK  211  A    between atoms: _506  and  _507
REMARK  212  A    between atoms: _511  and  _513
REMARK  213  A    between atoms: _513  and  _514
REMARK  214  A    between atoms: _513  and  _516
REMARK  215  A    between atoms: _516  and  _517
REMARK                            x       y       z     vdW  Elec       q    Type
REMARK                         _______ _______ _______ _____ _____    ______ ____
ROOT
ATOM      1  O   HOH     1      17.153  33.958  35.320  0.00  0.00    +0.000 OA
ENDROOT
TORSDOF 0
REMARK  Name = ../refined-set-2016/3wjw/3wjw_pocket.pdb
REMARK  215 active torsions:
REMARK  status: ('A' for Active; 'I' for Inactive)
REMARK    1  A    between atoms: _1  and  _3
REMARK    2  A    between atoms: _3  and  _4
REMARK    3  A    between atoms: _3  and  _6
REMARK    4  A    between atoms: _6  and  _7
REMARK    5  A    between atoms: _10  and  _12
REMARK    6  A    between atoms: _12  and  _13
REMARK    7  A    between atoms: _12  and  _15
REMARK    8  A    between atoms: _15  and  _16
REMARK    9  A    between atoms: _19  and  _21
REMARK   10  A    between atoms: _21  and  _22
REMARK   11  A    between atoms: _25  and  _27
REMARK   12  A    between atoms: _27  and  _28
REMARK   13  A    between atoms: _27  and  _30
REMARK   14  A    between atoms: _30  and  _31
REMARK   15  A    between atoms: _31  and  _32
REMARK   16  A    between atoms: _34  and  _36
REMARK   17  A    between atoms: _36  and  _37
REMARK   18  A    between atoms: _36  and  _39
REMARK   19  A    between atoms: _39  and  _40
REMARK   20  A    between atoms: _43  and  _45
REMARK   21  A    between atoms: _45  and  _46
REMARK   22  A    between atoms: _45  and  _48
REMARK   23  A    between atoms: _48  and  _49
REMARK   24  A    between atoms: _49  and  _50
REMARK   25  A    between atoms: _50  and  _51
REMARK   26  A    between atoms: _51  and  _52
REMARK   27  A    between atoms: _56  and  _58
REMARK   28  A    between atoms: _58  and  _59
REMARK   29  A    between atoms: _58  and  _61
REMARK   30  A    between atoms: _61  and  _62
REMARK   31  A    between atoms: _65  and  _67
REMARK   32  A    between atoms: _67  and  _68
REMARK   33  A    between atoms: _70  and  _72
REMARK   34  A    between atoms: _72  and  _73
REMARK   35  A    between atoms: _72  and  _75
REMARK   36  A    between atoms: _75  and  _76
REMARK   37  A    between atoms: _81  and  _82
REMARK   38  A    between atoms: _85  and  _86
REMARK   39  A    between atoms: _91  and  _93
REMARK   40  A    between atoms: _93  and  _94
REMARK   41  A    between atoms: _93  and  _96
REMARK   42  A    between atoms: _96  and  _97
REMARK   43  A    between atoms: _100  and  _102
REMARK   44  A    between atoms: _102  and  _103
REMARK   45  A    between atoms: _102  and  _105
REMARK   46  A    between atoms: _105  and  _106
REMARK   47  A    between atoms: _109  and  _111
REMARK   48  A    between atoms: _111  and  _112
REMARK   49  A    between atoms: _111  and  _114
REMARK   50  A    between atoms: _114  and  _115
REMARK   51  A    between atoms: _118  and  _120
REMARK   52  A    between atoms: _120  and  _121
REMARK   53  A    between atoms: _120  and  _123
REMARK   54  A    between atoms: _123  and  _124
REMARK   55  A    between atoms: _130  and  _132
REMARK   56  A    between atoms: _132  and  _133
REMARK   57  A    between atoms: _132  and  _135
REMARK   58  A    between atoms: _135  and  _136
REMARK   59  A    between atoms: _136  and  _137
REMARK   60  A    between atoms: _137  and  _138
REMARK   61  A    between atoms: _138  and  _139
REMARK   62  A    between atoms: _143  and  _145
REMARK   63  A    between atoms: _145  and  _146
REMARK   64  A    between atoms: _145  and  _148
REMARK   65  A    between atoms: _148  and  _149
REMARK   66  A    between atoms: _152  and  _154
REMARK   67  A    between atoms: _154  and  _155
REMARK   68  A    between atoms: _154  and  _157
REMARK   69  A    between atoms: _157  and  _158
REMARK   70  A    between atoms: _163  and  _165
REMARK   71  A    between atoms: _165  and  _166
REMARK   72  A    between atoms: _165  and  _168
REMARK   73  A    between atoms: _168  and  _169
REMARK   74  A    between atoms: _172  and  _174
REMARK   75  A    between atoms: _174  and  _175
REMARK   76  A    between atoms: _174  and  _177
REMARK   77  A    between atoms: _177  and  _178
REMARK   78  A    between atoms: _181  and  _183
REMARK   79  A    between atoms: _183  and  _184
REMARK   80  A    between atoms: _183  and  _186
REMARK   81  A    between atoms: _186  and  _187
REMARK   82  A    between atoms: _187  and  _188
REMARK   83  A    between atoms: _191  and  _193
REMARK   84  A    between atoms: _193  and  _194
REMARK   85  A    between atoms: _193  and  _196
REMARK   86  A    between atoms: _196  and  _197
REMARK   87  A    between atoms: _197  and  _198
REMARK   88  A    between atoms: _200  and  _202
REMARK   89  A    between atoms: _202  and  _203
REMARK   90  A    between atoms: _202  and  _205
REMARK   91  A    between atoms: _205  and  _206
REMARK   92  A    between atoms: _208  and  _210
REMARK   93  A    between atoms: _210  and  _211
REMARK   94  A    between atoms: _210  and  _213
REMARK   95  A    between atoms: _213  and  _214
REMARK   96  A    between atoms: _219  and  _221
REMARK   97  A    between atoms: _221  and  _222
REMARK   98  A    between atoms: _225  and  _227
REMARK   99  A    between atoms: _227  and  _228
REMARK  100  A    between atoms: _227  and  _230
REMARK  101  A    between atoms: _230  and  _231
REMARK  102  A    between atoms: _234  and  _236
REMARK  103  A    between atoms: _236  and  _237
REMARK  104  A    between atoms: _236  and  _239
REMARK  105  A    between atoms: _242  and  _244
REMARK  106  A    between atoms: _244  and  _245
REMARK  107  A    between atoms: _248  and  _249
REMARK  108  A    between atoms: _254  and  _256
REMARK  109  A    between atoms: _256  and  _257
REMARK  110  A    between atoms: _256  and  _259
REMARK  111  A    between atoms: _259  and  _260
REMARK  112  A    between atoms: _262  and  _264
REMARK  113  A    between atoms: _264  and  _265
REMARK  114  A    between atoms: _264  and  _267
REMARK  115  A    between atoms: _267  and  _268
REMARK  116  A    between atoms: _271  and  _273
REMARK  117  A    between atoms: _273  and  _274
REMARK  118  A    between atoms: _273  and  _276
REMARK  119  A    between atoms: _276  and  _277
REMARK  120  A    between atoms: _277  and  _278
REMARK  121  A    between atoms: _278  and  _279
REMARK  122  A    between atoms: _288  and  _290
REMARK  123  A    between atoms: _290  and  _291
REMARK  124  A    between atoms: _290  and  _293
REMARK  125  A    between atoms: _293  and  _294
REMARK  126  A    between atoms: _297  and  _299
REMARK  127  A    between atoms: _299  and  _300
REMARK  128  A    between atoms: _299  and  _302
REMARK  129  A    between atoms: _302  and  _303
REMARK  130  A    between atoms: _306  and  _307
REMARK  131  A    between atoms: _312  and  _314
REMARK  132  A    between atoms: _314  and  _315
REMARK  133  A    between atoms: _317  and  _319
REMARK  134  A    between atoms: _319  and  _320
REMARK  135  A    between atoms: _319  and  _322
REMARK  136  A    between atoms: _325  and  _327
REMARK  137  A    between atoms: _327  and  _328
REMARK  138  A    between atoms: _330  and  _332
REMARK  139  A    between atoms: _332  and  _333
REMARK  140  A    between atoms: _336  and  _338
REMARK  141  A    between atoms: _338  and  _339
REMARK  142  A    between atoms: _338  and  _341
REMARK  143  A    between atoms: _341  and  _342
REMARK  144  A    between atoms: _342  and  _343
REMARK  145  A    between atoms: _348  and  _350
REMARK  146  A    between atoms: _350  and  _351
REMARK  147  A    between atoms: _353  and  _355
REMARK  148  A    between atoms: _355  and  _356
REMARK  149  A    between atoms: _358  and  _360
REMARK  150  A    between atoms: _360  and  _361
REMARK  151  A    between atoms: _360  and  _363
REMARK  152  A    between atoms: _363  and  _364
REMARK  153  A    between atoms: _367  and  _369
REMARK  154  A    between atoms: _369  and  _370
REMARK  155  A    between atoms: _369  and  _372
REMARK  156  A    between atoms: _375  and  _377
REMARK  157  A    between atoms: _377  and  _378
REMARK  158  A    between atoms: _380  and  _382
REMARK  159  A    between atoms: _382  and  _383
REMARK  160  A    between atoms: _382  and  _385
REMARK  161  A    between atoms: _385  and  _386
REMARK  162  A    between atoms: _386  and  _387
REMARK  163  A    between atoms: _387  and  _388
REMARK  164  A    between atoms: _397  and  _399
REMARK  165  A    between atoms: _399  and  _400
REMARK  166  A    between atoms: _399  and  _402
REMARK  167  A    between atoms: _402  and  _403
REMARK  168  A    between atoms: _405  and  _407
REMARK  169  A    between atoms: _407  and  _408
REMARK  170  A    between atoms: _407  and  _410
REMARK  171  A    between atoms: _410  and  _411
REMARK  172  A    between atoms: _414  and  _416
REMARK  173  A    between atoms: _416  and  _417
REMARK  174  A    between atoms: _416  and  _419
REMARK  175  A    between atoms: _419  and  _420
REMARK  176  A    between atoms: _425  and  _426
REMARK  177  A    between atoms: _428  and  _430
REMARK  178  A    between atoms: _430  and  _431
REMARK  179  A    between atoms: _430  and  _433
REMARK  180  A    between atoms: _433  and  _434
REMARK  181  A    between atoms: _437  and  _439
REMARK  182  A    between atoms: _439  and  _440
REMARK  183  A    between atoms: _443  and  _445
REMARK  184  A    between atoms: _445  and  _446
REMARK  185  A    between atoms: _445  and  _448
REMARK  186  A    between atoms: _448  and  _449
REMARK  187  A    between atoms: _452  and  _454
REMARK  188  A    between atoms: _454  and  _455
REMARK  189  A    between atoms: _454  and  _457
REMARK  190  A    between atoms: _457  and  _458
REMARK  191  A    between atoms: _462  and  _463
REMARK  192  A    between atoms: _468  and  _470
REMARK  193  A    between atoms: _470  and  _471
REMARK  194  A    between atoms: _470  and  _473
REMARK  195  A    between atoms: _473  and  _474
REMARK  196  A    between atoms: _474  and  _475
REMARK  197  A    between atoms: _478  and  _480
REMARK  198  A    between atoms: _480  and  _481
REMARK  199  A    between atoms: _480  and  _483
REMARK  200  A    between atoms: _483  and  _484
REMARK  201  A    between atoms: _487  and  _489
REMARK  202  A    between atoms: _489  and  _490
REMARK  203  A    between atoms: _489  and  _492
REMARK  204  A    between atoms: _492  and  _493
REMARK  205  A    between atoms: _498  and  _500
REMARK  206  A    between atoms: _500  and  _501
REMARK  207  A    between atoms: _500  and  _503
REMARK  208  A    between atoms: _503  and  _504
REMARK  209  A    between atoms: _504  and  _505
REMARK  210  A    between atoms: _505  and  _506
REMARK  211  A    between atoms: _506  and  _507
REMARK  212  A    between atoms: _511  and  _513
REMARK  213  A    between atoms: _513  and  _514
REMARK  214  A    between atoms: _513  and  _516
REMARK  215  A    between atoms: _516  and  _517
REMARK                            x       y       z     vdW  Elec       q    Type
REMARK                         _______ _______ _______ _____ _____    ______ ____
ROOT
ATOM      1  O   HOH     1      21.907  36.775  39.528  0.00  0.00    +0.000 OA
ENDROOT
TORSDOF 0
REMARK  Name = ../refined-set-2016/3wjw/3wjw_pocket.pdb
REMARK  215 active torsions:
REMARK  status: ('A' for Active; 'I' for Inactive)
REMARK    1  A    between atoms: _1  and  _3
REMARK    2  A    between atoms: _3  and  _4
REMARK    3  A    between atoms: _3  and  _6
REMARK    4  A    between atoms: _6  and  _7
REMARK    5  A    between atoms: _10  and  _12
REMARK    6  A    between atoms: _12  and  _13
REMARK    7  A    between atoms: _12  and  _15
REMARK    8  A    between atoms: _15  and  _16
REMARK    9  A    between atoms: _19  and  _21
REMARK   10  A    between atoms: _21  and  _22
REMARK   11  A    between atoms: _25  and  _27
REMARK   12  A    between atoms: _27  and  _28
REMARK   13  A    between atoms: _27  and  _30
REMARK   14  A    between atoms: _30  and  _31
REMARK   15  A    between atoms: _31  and  _32
REMARK   16  A    between atoms: _34  and  _36
REMARK   17  A    between atoms: _36  and  _37
REMARK   18  A    between atoms: _36  and  _39
REMARK   19  A    between atoms: _39  and  _40
REMARK   20  A    between atoms: _43  and  _45
REMARK   21  A    between atoms: _45  and  _46
REMARK   22  A    between atoms: _45  and  _48
REMARK   23  A    between atoms: _48  and  _49
REMARK   24  A    between atoms: _49  and  _50
REMARK   25  A    between atoms: _50  and  _51
REMARK   26  A    between atoms: _51  and  _52
REMARK   27  A    between atoms: _56  and  _58
REMARK   28  A    between atoms: _58  and  _59
REMARK   29  A    between atoms: _58  and  _61
REMARK   30  A    between atoms: _61  and  _62
REMARK   31  A    between atoms: _65  and  _67
REMARK   32  A    between atoms: _67  and  _68
REMARK   33  A    between atoms: _70  and  _72
REMARK   34  A    between atoms: _72  and  _73
REMARK   35  A    between atoms: _72  and  _75
REMARK   36  A    between atoms: _75  and  _76
REMARK   37  A    between atoms: _81  and  _82
REMARK   38  A    between atoms: _85  and  _86
REMARK   39  A    between atoms: _91  and  _93
REMARK   40  A    between atoms: _93  and  _94
REMARK   41  A    between atoms: _93  and  _96
REMARK   42  A    between atoms: _96  and  _97
REMARK   43  A    between atoms: _100  and  _102
REMARK   44  A    between atoms: _102  and  _103
REMARK   45  A    between atoms: _102  and  _105
REMARK   46  A    between atoms: _105  and  _106
REMARK   47  A    between atoms: _109  and  _111
REMARK   48  A    between atoms: _111  and  _112
REMARK   49  A    between atoms: _111  and  _114
REMARK   50  A    between atoms: _114  and  _115
REMARK   51  A    between atoms: _118  and  _120
REMARK   52  A    between atoms: _120  and  _121
REMARK   53  A    between atoms: _120  and  _123
REMARK   54  A    between atoms: _123  and  _124
REMARK   55  A    between atoms: _130  and  _132
REMARK   56  A    between atoms: _132  and  _133
REMARK   57  A    between atoms: _132  and  _135
REMARK   58  A    between atoms: _135  and  _136
REMARK   59  A    between atoms: _136  and  _137
REMARK   60  A    between atoms: _137  and  _138
REMARK   61  A    between atoms: _138  and  _139
REMARK   62  A    between atoms: _143  and  _145
REMARK   63  A    between atoms: _145  and  _146
REMARK   64  A    between atoms: _145  and  _148
REMARK   65  A    between atoms: _148  and  _149
REMARK   66  A    between atoms: _152  and  _154
REMARK   67  A    between atoms: _154  and  _155
REMARK   68  A    between atoms: _154  and  _157
REMARK   69  A    between atoms: _157  and  _158
REMARK   70  A    between atoms: _163  and  _165
REMARK   71  A    between atoms: _165  and  _166
REMARK   72  A    between atoms: _165  and  _168
REMARK   73  A    between atoms: _168  and  _169
REMARK   74  A    between atoms: _172  and  _174
REMARK   75  A    between atoms: _174  and  _175
REMARK   76  A    between atoms: _174  and  _177
REMARK   77  A    between atoms: _177  and  _178
REMARK   78  A    between atoms: _181  and  _183
REMARK   79  A    between atoms: _183  and  _184
REMARK   80  A    between atoms: _183  and  _186
REMARK   81  A    between atoms: _186  and  _187
REMARK   82  A    between atoms: _187  and  _188
REMARK   83  A    between atoms: _191  and  _193
REMARK   84  A    between atoms: _193  and  _194
REMARK   85  A    between atoms: _193  and  _196
REMARK   86  A    between atoms: _196  and  _197
REMARK   87  A    between atoms: _197  and  _198
REMARK   88  A    between atoms: _200  and  _202
REMARK   89  A    between atoms: _202  and  _203
REMARK   90  A    between atoms: _202  and  _205
REMARK   91  A    between atoms: _205  and  _206
REMARK   92  A    between atoms: _208  and  _210
REMARK   93  A    between atoms: _210  and  _211
REMARK   94  A    between atoms: _210  and  _213
REMARK   95  A    between atoms: _213  and  _214
REMARK   96  A    between atoms: _219  and  _221
REMARK   97  A    between atoms: _221  and  _222
REMARK   98  A    between atoms: _225  and  _227
REMARK   99  A    between atoms: _227  and  _228
REMARK  100  A    between atoms: _227  and  _230
REMARK  101  A    between atoms: _230  and  _231
REMARK  102  A    between atoms: _234  and  _236
REMARK  103  A    between atoms: _236  and  _237
REMARK  104  A    between atoms: _236  and  _239
REMARK  105  A    between atoms: _242  and  _244
REMARK  106  A    between atoms: _244  and  _245
REMARK  107  A    between atoms: _248  and  _249
REMARK  108  A    between atoms: _254  and  _256
REMARK  109  A    between atoms: _256  and  _257
REMARK  110  A    between atoms: _256  and  _259
REMARK  111  A    between atoms: _259  and  _260
REMARK  112  A    between atoms: _262  and  _264
REMARK  113  A    between atoms: _264  and  _265
REMARK  114  A    between atoms: _264  and  _267
REMARK  115  A    between atoms: _267  and  _268
REMARK  116  A    between atoms: _271  and  _273
REMARK  117  A    between atoms: _273  and  _274
REMARK  118  A    between atoms: _273  and  _276
REMARK  119  A    between atoms: _276  and  _277
REMARK  120  A    between atoms: _277  and  _278
REMARK  121  A    between atoms: _278  and  _279
REMARK  122  A    between atoms: _288  and  _290
REMARK  123  A    between atoms: _290  and  _291
REMARK  124  A    between atoms: _290  and  _293
REMARK  125  A    between atoms: _293  and  _294
REMARK  126  A    between atoms: _297  and  _299
REMARK  127  A    between atoms: _299  and  _300
REMARK  128  A    between atoms: _299  and  _302
REMARK  129  A    between atoms: _302  and  _303
REMARK  130  A    between atoms: _306  and  _307
REMARK  131  A    between atoms: _312  and  _314
REMARK  132  A    between atoms: _314  and  _315
REMARK  133  A    between atoms: _317  and  _319
REMARK  134  A    between atoms: _319  and  _320
REMARK  135  A    between atoms: _319  and  _322
REMARK  136  A    between atoms: _325  and  _327
REMARK  137  A    between atoms: _327  and  _328
REMARK  138  A    between atoms: _330  and  _332
REMARK  139  A    between atoms: _332  and  _333
REMARK  140  A    between atoms: _336  and  _338
REMARK  141  A    between atoms: _338  and  _339
REMARK  142  A    between atoms: _338  and  _341
REMARK  143  A    between atoms: _341  and  _342
REMARK  144  A    between atoms: _342  and  _343
REMARK  145  A    between atoms: _348  and  _350
REMARK  146  A    between atoms: _350  and  _351
REMARK  147  A    between atoms: _353  and  _355
REMARK  148  A    between atoms: _355  and  _356
REMARK  149  A    between atoms: _358  and  _360
REMARK  150  A    between atoms: _360  and  _361
REMARK  151  A    between atoms: _360  and  _363
REMARK  152  A    between atoms: _363  and  _364
REMARK  153  A    between atoms: _367  and  _369
REMARK  154  A    between atoms: _369  and  _370
REMARK  155  A    between atoms: _369  and  _372
REMARK  156  A    between atoms: _375  and  _377
REMARK  157  A    between atoms: _377  and  _378
REMARK  158  A    between atoms: _380  and  _382
REMARK  159  A    between atoms: _382  and  _383
REMARK  160  A    between atoms: _382  and  _385
REMARK  161  A    between atoms: _385  and  _386
REMARK  162  A    between atoms: _386  and  _387
REMARK  163  A    between atoms: _387  and  _388
REMARK  164  A    between atoms: _397  and  _399
REMARK  165  A    between atoms: _399  and  _400
REMARK  166  A    between atoms: _399  and  _402
REMARK  167  A    between atoms: _402  and  _403
REMARK  168  A    between atoms: _405  and  _407
REMARK  169  A    between atoms: _407  and  _408
REMARK  170  A    between atoms: _407  and  _410
REMARK  171  A    between atoms: _410  and  _411
REMARK  172  A    between atoms: _414  and  _416
REMARK  173  A    between atoms: _416  and  _417
REMARK  174  A    between atoms: _416  and  _419
REMARK  175  A    between atoms: _419  and  _420
REMARK  176  A    between atoms: _425  and  _426
REMARK  177  A    between atoms: _428  and  _430
REMARK  178  A    between atoms: _430  and  _431
REMARK  179  A    between atoms: _430  and  _433
REMARK  180  A    between atoms: _433  and  _434
REMARK  181  A    between atoms: _437  and  _439
REMARK  182  A    between atoms: _439  and  _440
REMARK  183  A    between atoms: _443  and  _445
REMARK  184  A    between atoms: _445  and  _446
REMARK  185  A    between atoms: _445  and  _448
REMARK  186  A    between atoms: _448  and  _449
REMARK  187  A    between atoms: _452  and  _454
REMARK  188  A    between atoms: _454  and  _455
REMARK  189  A    between atoms: _454  and  _457
REMARK  190  A    between atoms: _457  and  _458
REMARK  191  A    between atoms: _462  and  _463
REMARK  192  A    between atoms: _468  and  _470
REMARK  193  A    between atoms: _470  and  _471
REMARK  194  A    between atoms: _470  and  _473
REMARK  195  A    between atoms: _473  and  _474
REMARK  196  A    between atoms: _474  and  _475
REMARK  197  A    between atoms: _478  and  _480
REMARK  198  A    between atoms: _480  and  _481
REMARK  199  A    between atoms: _480  and  _483
REMARK  200  A    between atoms: _483  and  _484
REMARK  201  A    between atoms: _487  and  _489
REMARK  202  A    between atoms: _489  and  _490
REMARK  203  A    between atoms: _489  and  _492
REMARK  204  A    between atoms: _492  and  _493
REMARK  205  A    between atoms: _498  and  _500
REMARK  206  A    between atoms: _500  and  _501
REMARK  207  A    between atoms: _500  and  _503
REMARK  208  A    between atoms: _503  and  _504
REMARK  209  A    between atoms: _504  and  _505
REMARK  210  A    between atoms: _505  and  _506
REMARK  211  A    between atoms: _506  and  _507
REMARK  212  A    between atoms: _511  and  _513
REMARK  213  A    between atoms: _513  and  _514
REMARK  214  A    between atoms: _513  and  _516
REMARK  215  A    between atoms: _516  and  _517
REMARK                            x       y       z     vdW  Elec       q    Type
REMARK                         _______ _______ _______ _____ _____    ______ ____
ROOT
ATOM      1  O   HOH     1      23.893  40.209  34.460  0.00  0.00    +0.000 OA
ENDROOT
TORSDOF 0
REMARK  Name = ../refined-set-2016/3wjw/3wjw_pocket.pdb
REMARK  215 active torsions:
REMARK  status: ('A' for Active; 'I' for Inactive)
REMARK    1  A    between atoms: _1  and  _3
REMARK    2  A    between atoms: _3  and  _4
REMARK    3  A    between atoms: _3  and  _6
REMARK    4  A    between atoms: _6  and  _7
REMARK    5  A    between atoms: _10  and  _12
REMARK    6  A    between atoms: _12  and  _13
REMARK    7  A    between atoms: _12  and  _15
REMARK    8  A    between atoms: _15  and  _16
REMARK    9  A    between atoms: _19  and  _21
REMARK   10  A    between atoms: _21  and  _22
REMARK   11  A    between atoms: _25  and  _27
REMARK   12  A    between atoms: _27  and  _28
REMARK   13  A    between atoms: _27  and  _30
REMARK   14  A    between atoms: _30  and  _31
REMARK   15  A    between atoms: _31  and  _32
REMARK   16  A    between atoms: _34  and  _36
REMARK   17  A    between atoms: _36  and  _37
REMARK   18  A    between atoms: _36  and  _39
REMARK   19  A    between atoms: _39  and  _40
REMARK   20  A    between atoms: _43  and  _45
REMARK   21  A    between atoms: _45  and  _46
REMARK   22  A    between atoms: _45  and  _48
REMARK   23  A    between atoms: _48  and  _49
REMARK   24  A    between atoms: _49  and  _50
REMARK   25  A    between atoms: _50  and  _51
REMARK   26  A    between atoms: _51  and  _52
REMARK   27  A    between atoms: _56  and  _58
REMARK   28  A    between atoms: _58  and  _59
REMARK   29  A    between atoms: _58  and  _61
REMARK   30  A    between atoms: _61  and  _62
REMARK   31  A    between atoms: _65  and  _67
REMARK   32  A    between atoms: _67  and  _68
REMARK   33  A    between atoms: _70  and  _72
REMARK   34  A    between atoms: _72  and  _73
REMARK   35  A    between atoms: _72  and  _75
REMARK   36  A    between atoms: _75  and  _76
REMARK   37  A    between atoms: _81  and  _82
REMARK   38  A    between atoms: _85  and  _86
REMARK   39  A    between atoms: _91  and  _93
REMARK   40  A    between atoms: _93  and  _94
REMARK   41  A    between atoms: _93  and  _96
REMARK   42  A    between atoms: _96  and  _97
REMARK   43  A    between atoms: _100  and  _102
REMARK   44  A    between atoms: _102  and  _103
REMARK   45  A    between atoms: _102  and  _105
REMARK   46  A    between atoms: _105  and  _106
REMARK   47  A    between atoms: _109  and  _111
REMARK   48  A    between atoms: _111  and  _112
REMARK   49  A    between atoms: _111  and  _114
REMARK   50  A    between atoms: _114  and  _115
REMARK   51  A    between atoms: _118  and  _120
REMARK   52  A    between atoms: _120  and  _121
REMARK   53  A    between atoms: _120  and  _123
REMARK   54  A    between atoms: _123  and  _124
REMARK   55  A    between atoms: _130  and  _132
REMARK   56  A    between atoms: _132  and  _133
REMARK   57  A    between atoms: _132  and  _135
REMARK   58  A    between atoms: _135  and  _136
REMARK   59  A    between atoms: _136  and  _137
REMARK   60  A    between atoms: _137  and  _138
REMARK   61  A    between atoms: _138  and  _139
REMARK   62  A    between atoms: _143  and  _145
REMARK   63  A    between atoms: _145  and  _146
REMARK   64  A    between atoms: _145  and  _148
REMARK   65  A    between atoms: _148  and  _149
REMARK   66  A    between atoms: _152  and  _154
REMARK   67  A    between atoms: _154  and  _155
REMARK   68  A    between atoms: _154  and  _157
REMARK   69  A    between atoms: _157  and  _158
REMARK   70  A    between atoms: _163  and  _165
REMARK   71  A    between atoms: _165  and  _166
REMARK   72  A    between atoms: _165  and  _168
REMARK   73  A    between atoms: _168  and  _169
REMARK   74  A    between atoms: _172  and  _174
REMARK   75  A    between atoms: _174  and  _175
REMARK   76  A    between atoms: _174  and  _177
REMARK   77  A    between atoms: _177  and  _178
REMARK   78  A    between atoms: _181  and  _183
REMARK   79  A    between atoms: _183  and  _184
REMARK   80  A    between atoms: _183  and  _186
REMARK   81  A    between atoms: _186  and  _187
REMARK   82  A    between atoms: _187  and  _188
REMARK   83  A    between atoms: _191  and  _193
REMARK   84  A    between atoms: _193  and  _194
REMARK   85  A    between atoms: _193  and  _196
REMARK   86  A    between atoms: _196  and  _197
REMARK   87  A    between atoms: _197  and  _198
REMARK   88  A    between atoms: _200  and  _202
REMARK   89  A    between atoms: _202  and  _203
REMARK   90  A    between atoms: _202  and  _205
REMARK   91  A    between atoms: _205  and  _206
REMARK   92  A    between atoms: _208  and  _210
REMARK   93  A    between atoms: _210  and  _211
REMARK   94  A    between atoms: _210  and  _213
REMARK   95  A    between atoms: _213  and  _214
REMARK   96  A    between atoms: _219  and  _221
REMARK   97  A    between atoms: _221  and  _222
REMARK   98  A    between atoms: _225  and  _227
REMARK   99  A    between atoms: _227  and  _228
REMARK  100  A    between atoms: _227  and  _230
REMARK  101  A    between atoms: _230  and  _231
REMARK  102  A    between atoms: _234  and  _236
REMARK  103  A    between atoms: _236  and  _237
REMARK  104  A    between atoms: _236  and  _239
REMARK  105  A    between atoms: _242  and  _244
REMARK  106  A    between atoms: _244  and  _245
REMARK  107  A    between atoms: _248  and  _249
REMARK  108  A    between atoms: _254  and  _256
REMARK  109  A    between atoms: _256  and  _257
REMARK  110  A    between atoms: _256  and  _259
REMARK  111  A    between atoms: _259  and  _260
REMARK  112  A    between atoms: _262  and  _264
REMARK  113  A    between atoms: _264  and  _265
REMARK  114  A    between atoms: _264  and  _267
REMARK  115  A    between atoms: _267  and  _268
REMARK  116  A    between atoms: _271  and  _273
REMARK  117  A    between atoms: _273  and  _274
REMARK  118  A    between atoms: _273  and  _276
REMARK  119  A    between atoms: _276  and  _277
REMARK  120  A    between atoms: _277  and  _278
REMARK  121  A    between atoms: _278  and  _279
REMARK  122  A    between atoms: _288  and  _290
REMARK  123  A    between atoms: _290  and  _291
REMARK  124  A    between atoms: _290  and  _293
REMARK  125  A    between atoms: _293  and  _294
REMARK  126  A    between atoms: _297  and  _299
REMARK  127  A    between atoms: _299  and  _300
REMARK  128  A    between atoms: _299  and  _302
REMARK  129  A    between atoms: _302  and  _303
REMARK  130  A    between atoms: _306  and  _307
REMARK  131  A    between atoms: _312  and  _314
REMARK  132  A    between atoms: _314  and  _315
REMARK  133  A    between atoms: _317  and  _319
REMARK  134  A    between atoms: _319  and  _320
REMARK  135  A    between atoms: _319  and  _322
REMARK  136  A    between atoms: _325  and  _327
REMARK  137  A    between atoms: _327  and  _328
REMARK  138  A    between atoms: _330  and  _332
REMARK  139  A    between atoms: _332  and  _333
REMARK  140  A    between atoms: _336  and  _338
REMARK  141  A    between atoms: _338  and  _339
REMARK  142  A    between atoms: _338  and  _341
REMARK  143  A    between atoms: _341  and  _342
REMARK  144  A    between atoms: _342  and  _343
REMARK  145  A    between atoms: _348  and  _350
REMARK  146  A    between atoms: _350  and  _351
REMARK  147  A    between atoms: _353  and  _355
REMARK  148  A    between atoms: _355  and  _356
REMARK  149  A    between atoms: _358  and  _360
REMARK  150  A    between atoms: _360  and  _361
REMARK  151  A    between atoms: _360  and  _363
REMARK  152  A    between atoms: _363  and  _364
REMARK  153  A    between atoms: _367  and  _369
REMARK  154  A    between atoms: _369  and  _370
REMARK  155  A    between atoms: _369  and  _372
REMARK  156  A    between atoms: _375  and  _377
REMARK  157  A    between atoms: _377  and  _378
REMARK  158  A    between atoms: _380  and  _382
REMARK  159  A    between atoms: _382  and  _383
REMARK  160  A    between atoms: _382  and  _385
REMARK  161  A    between atoms: _385  and  _386
REMARK  162  A    between atoms: _386  and  _387
REMARK  163  A    between atoms: _387  and  _388
REMARK  164  A    between atoms: _397  and  _399
REMARK  165  A    between atoms: _399  and  _400
REMARK  166  A    between atoms: _399  and  _402
REMARK  167  A    between atoms: _402  and  _403
REMARK  168  A    between atoms: _405  and  _407
REMARK  169  A    between atoms: _407  and  _408
REMARK  170  A    between atoms: _407  and  _410
REMARK  171  A    between atoms: _410  and  _411
REMARK  172  A    between atoms: _414  and  _416
REMARK  173  A    between atoms: _416  and  _417
REMARK  174  A    between atoms: _416  and  _419
REMARK  175  A    between atoms: _419  and  _420
REMARK  176  A    between atoms: _425  and  _426
REMARK  177  A    between atoms: _428  and  _430
REMARK  178  A    between atoms: _430  and  _431
REMARK  179  A    between atoms: _430  and  _433
REMARK  180  A    between atoms: _433  and  _434
REMARK  181  A    between atoms: _437  and  _439
REMARK  182  A    between atoms: _439  and  _440
REMARK  183  A    between atoms: _443  and  _445
REMARK  184  A    between atoms: _445  and  _446
REMARK  185  A    between atoms: _445  and  _448
REMARK  186  A    between atoms: _448  and  _449
REMARK  187  A    between atoms: _452  and  _454
REMARK  188  A    between atoms: _454  and  _455
REMARK  189  A    between atoms: _454  and  _457
REMARK  190  A    between atoms: _457  and  _458
REMARK  191  A    between atoms: _462  and  _463
REMARK  192  A    between atoms: _468  and  _470
REMARK  193  A    between atoms: _470  and  _471
REMARK  194  A    between atoms: _470  and  _473
REMARK  195  A    between atoms: _473  and  _474
REMARK  196  A    between atoms: _474  and  _475
REMARK  197  A    between atoms: _478  and  _480
REMARK  198  A    between atoms: _480  and  _481
REMARK  199  A    between atoms: _480  and  _483
REMARK  200  A    between atoms: _483  and  _484
REMARK  201  A    between atoms: _487  and  _489
REMARK  202  A    between atoms: _489  and  _490
REMARK  203  A    between atoms: _489  and  _492
REMARK  204  A    between atoms: _492  and  _493
REMARK  205  A    between atoms: _498  and  _500
REMARK  206  A    between atoms: _500  and  _501
REMARK  207  A    between atoms: _500  and  _503
REMARK  208  A    between atoms: _503  and  _504
REMARK  209  A    between atoms: _504  and  _505
REMARK  210  A    between atoms: _505  and  _506
REMARK  211  A    between atoms: _506  and  _507
REMARK  212  A    between atoms: _511  and  _513
REMARK  213  A    between atoms: _513  and  _514
REMARK  214  A    between atoms: _513  and  _516
REMARK  215  A    between atoms: _516  and  _517
REMARK                            x       y       z     vdW  Elec       q    Type
REMARK                         _______ _______ _______ _____ _____    ______ ____
ROOT
ATOM      1  O   HOH     1      19.865  46.931  37.378  0.00  0.00    +0.000 OA
ENDROOT
TORSDOF 0
REMARK  Name = ../refined-set-2016/3wjw/3wjw_pocket.pdb
REMARK  215 active torsions:
REMARK  status: ('A' for Active; 'I' for Inactive)
REMARK    1  A    between atoms: _1  and  _3
REMARK    2  A    between atoms: _3  and  _4
REMARK    3  A    between atoms: _3  and  _6
REMARK    4  A    between atoms: _6  and  _7
REMARK    5  A    between atoms: _10  and  _12
REMARK    6  A    between atoms: _12  and  _13
REMARK    7  A    between atoms: _12  and  _15
REMARK    8  A    between atoms: _15  and  _16
REMARK    9  A    between atoms: _19  and  _21
REMARK   10  A    between atoms: _21  and  _22
REMARK   11  A    between atoms: _25  and  _27
REMARK   12  A    between atoms: _27  and  _28
REMARK   13  A    between atoms: _27  and  _30
REMARK   14  A    between atoms: _30  and  _31
REMARK   15  A    between atoms: _31  and  _32
REMARK   16  A    between atoms: _34  and  _36
REMARK   17  A    between atoms: _36  and  _37
REMARK   18  A    between atoms: _36  and  _39
REMARK   19  A    between atoms: _39  and  _40
REMARK   20  A    between atoms: _43  and  _45
REMARK   21  A    between atoms: _45  and  _46
REMARK   22  A    between atoms: _45  and  _48
REMARK   23  A    between atoms: _48  and  _49
REMARK   24  A    between atoms: _49  and  _50
REMARK   25  A    between atoms: _50  and  _51
REMARK   26  A    between atoms: _51  and  _52
REMARK   27  A    between atoms: _56  and  _58
REMARK   28  A    between atoms: _58  and  _59
REMARK   29  A    between atoms: _58  and  _61
REMARK   30  A    between atoms: _61  and  _62
REMARK   31  A    between atoms: _65  and  _67
REMARK   32  A    between atoms: _67  and  _68
REMARK   33  A    between atoms: _70  and  _72
REMARK   34  A    between atoms: _72  and  _73
REMARK   35  A    between atoms: _72  and  _75
REMARK   36  A    between atoms: _75  and  _76
REMARK   37  A    between atoms: _81  and  _82
REMARK   38  A    between atoms: _85  and  _86
REMARK   39  A    between atoms: _91  and  _93
REMARK   40  A    between atoms: _93  and  _94
REMARK   41  A    between atoms: _93  and  _96
REMARK   42  A    between atoms: _96  and  _97
REMARK   43  A    between atoms: _100  and  _102
REMARK   44  A    between atoms: _102  and  _103
REMARK   45  A    between atoms: _102  and  _105
REMARK   46  A    between atoms: _105  and  _106
REMARK   47  A    between atoms: _109  and  _111
REMARK   48  A    between atoms: _111  and  _112
REMARK   49  A    between atoms: _111  and  _114
REMARK   50  A    between atoms: _114  and  _115
REMARK   51  A    between atoms: _118  and  _120
REMARK   52  A    between atoms: _120  and  _121
REMARK   53  A    between atoms: _120  and  _123
REMARK   54  A    between atoms: _123  and  _124
REMARK   55  A    between atoms: _130  and  _132
REMARK   56  A    between atoms: _132  and  _133
REMARK   57  A    between atoms: _132  and  _135
REMARK   58  A    between atoms: _135  and  _136
REMARK   59  A    between atoms: _136  and  _137
REMARK   60  A    between atoms: _137  and  _138
REMARK   61  A    between atoms: _138  and  _139
REMARK   62  A    between atoms: _143  and  _145
REMARK   63  A    between atoms: _145  and  _146
REMARK   64  A    between atoms: _145  and  _148
REMARK   65  A    between atoms: _148  and  _149
REMARK   66  A    between atoms: _152  and  _154
REMARK   67  A    between atoms: _154  and  _155
REMARK   68  A    between atoms: _154  and  _157
REMARK   69  A    between atoms: _157  and  _158
REMARK   70  A    between atoms: _163  and  _165
REMARK   71  A    between atoms: _165  and  _166
REMARK   72  A    between atoms: _165  and  _168
REMARK   73  A    between atoms: _168  and  _169
REMARK   74  A    between atoms: _172  and  _174
REMARK   75  A    between atoms: _174  and  _175
REMARK   76  A    between atoms: _174  and  _177
REMARK   77  A    between atoms: _177  and  _178
REMARK   78  A    between atoms: _181  and  _183
REMARK   79  A    between atoms: _183  and  _184
REMARK   80  A    between atoms: _183  and  _186
REMARK   81  A    between atoms: _186  and  _187
REMARK   82  A    between atoms: _187  and  _188
REMARK   83  A    between atoms: _191  and  _193
REMARK   84  A    between atoms: _193  and  _194
REMARK   85  A    between atoms: _193  and  _196
REMARK   86  A    between atoms: _196  and  _197
REMARK   87  A    between atoms: _197  and  _198
REMARK   88  A    between atoms: _200  and  _202
REMARK   89  A    between atoms: _202  and  _203
REMARK   90  A    between atoms: _202  and  _205
REMARK   91  A    between atoms: _205  and  _206
REMARK   92  A    between atoms: _208  and  _210
REMARK   93  A    between atoms: _210  and  _211
REMARK   94  A    between atoms: _210  and  _213
REMARK   95  A    between atoms: _213  and  _214
REMARK   96  A    between atoms: _219  and  _221
REMARK   97  A    between atoms: _221  and  _222
REMARK   98  A    between atoms: _225  and  _227
REMARK   99  A    between atoms: _227  and  _228
REMARK  100  A    between atoms: _227  and  _230
REMARK  101  A    between atoms: _230  and  _231
REMARK  102  A    between atoms: _234  and  _236
REMARK  103  A    between atoms: _236  and  _237
REMARK  104  A    between atoms: _236  and  _239
REMARK  105  A    between atoms: _242  and  _244
REMARK  106  A    between atoms: _244  and  _245
REMARK  107  A    between atoms: _248  and  _249
REMARK  108  A    between atoms: _254  and  _256
REMARK  109  A    between atoms: _256  and  _257
REMARK  110  A    between atoms: _256  and  _259
REMARK  111  A    between atoms: _259  and  _260
REMARK  112  A    between atoms: _262  and  _264
REMARK  113  A    between atoms: _264  and  _265
REMARK  114  A    between atoms: _264  and  _267
REMARK  115  A    between atoms: _267  and  _268
REMARK  116  A    between atoms: _271  and  _273
REMARK  117  A    between atoms: _273  and  _274
REMARK  118  A    between atoms: _273  and  _276
REMARK  119  A    between atoms: _276  and  _277
REMARK  120  A    between atoms: _277  and  _278
REMARK  121  A    between atoms: _278  and  _279
REMARK  122  A    between atoms: _288  and  _290
REMARK  123  A    between atoms: _290  and  _291
REMARK  124  A    between atoms: _290  and  _293
REMARK  125  A    between atoms: _293  and  _294
REMARK  126  A    between atoms: _297  and  _299
REMARK  127  A    between atoms: _299  and  _300
REMARK  128  A    between atoms: _299  and  _302
REMARK  129  A    between atoms: _302  and  _303
REMARK  130  A    between atoms: _306  and  _307
REMARK  131  A    between atoms: _312  and  _314
REMARK  132  A    between atoms: _314  and  _315
REMARK  133  A    between atoms: _317  and  _319
REMARK  134  A    between atoms: _319  and  _320
REMARK  135  A    between atoms: _319  and  _322
REMARK  136  A    between atoms: _325  and  _327
REMARK  137  A    between atoms: _327  and  _328
REMARK  138  A    between atoms: _330  and  _332
REMARK  139  A    between atoms: _332  and  _333
REMARK  140  A    between atoms: _336  and  _338
REMARK  141  A    between atoms: _338  and  _339
REMARK  142  A    between atoms: _338  and  _341
REMARK  143  A    between atoms: _341  and  _342
REMARK  144  A    between atoms: _342  and  _343
REMARK  145  A    between atoms: _348  and  _350
REMARK  146  A    between atoms: _350  and  _351
REMARK  147  A    between atoms: _353  and  _355
REMARK  148  A    between atoms: _355  and  _356
REMARK  149  A    between atoms: _358  and  _360
REMARK  150  A    between atoms: _360  and  _361
REMARK  151  A    between atoms: _360  and  _363
REMARK  152  A    between atoms: _363  and  _364
REMARK  153  A    between atoms: _367  and  _369
REMARK  154  A    between atoms: _369  and  _370
REMARK  155  A    between atoms: _369  and  _372
REMARK  156  A    between atoms: _375  and  _377
REMARK  157  A    between atoms: _377  and  _378
REMARK  158  A    between atoms: _380  and  _382
REMARK  159  A    between atoms: _382  and  _383
REMARK  160  A    between atoms: _382  and  _385
REMARK  161  A    between atoms: _385  and  _386
REMARK  162  A    between atoms: _386  and  _387
REMARK  163  A    between atoms: _387  and  _388
REMARK  164  A    between atoms: _397  and  _399
REMARK  165  A    between atoms: _399  and  _400
REMARK  166  A    between atoms: _399  and  _402
REMARK  167  A    between atoms: _402  and  _403
REMARK  168  A    between atoms: _405  and  _407
REMARK  169  A    between atoms: _407  and  _408
REMARK  170  A    between atoms: _407  and  _410
REMARK  171  A    between atoms: _410  and  _411
REMARK  172  A    between atoms: _414  and  _416
REMARK  173  A    between atoms: _416  and  _417
REMARK  174  A    between atoms: _416  and  _419
REMARK  175  A    between atoms: _419  and  _420
REMARK  176  A    between atoms: _425  and  _426
REMARK  177  A    between atoms: _428  and  _430
REMARK  178  A    between atoms: _430  and  _431
REMARK  179  A    between atoms: _430  and  _433
REMARK  180  A    between atoms: _433  and  _434
REMARK  181  A    between atoms: _437  and  _439
REMARK  182  A    between atoms: _439  and  _440
REMARK  183  A    between atoms: _443  and  _445
REMARK  184  A    between atoms: _445  and  _446
REMARK  185  A    between atoms: _445  and  _448
REMARK  186  A    between atoms: _448  and  _449
REMARK  187  A    between atoms: _452  and  _454
REMARK  188  A    between atoms: _454  and  _455
REMARK  189  A    between atoms: _454  and  _457
REMARK  190  A    between atoms: _457  and  _458
REMARK  191  A    between atoms: _462  and  _463
REMARK  192  A    between atoms: _468  and  _470
REMARK  193  A    between atoms: _470  and  _471
REMARK  194  A    between atoms: _470  and  _473
REMARK  195  A    between atoms: _473  and  _474
REMARK  196  A    between atoms: _474  and  _475
REMARK  197  A    between atoms: _478  and  _480
REMARK  198  A    between atoms: _480  and  _481
REMARK  199  A    between atoms: _480  and  _483
REMARK  200  A    between atoms: _483  and  _484
REMARK  201  A    between atoms: _487  and  _489
REMARK  202  A    between atoms: _489  and  _490
REMARK  203  A    between atoms: _489  and  _492
REMARK  204  A    between atoms: _492  and  _493
REMARK  205  A    between atoms: _498  and  _500
REMARK  206  A    between atoms: _500  and  _501
REMARK  207  A    between atoms: _500  and  _503
REMARK  208  A    between atoms: _503  and  _504
REMARK  209  A    between atoms: _504  and  _505
REMARK  210  A    between atoms: _505  and  _506
REMARK  211  A    between atoms: _506  and  _507
REMARK  212  A    between atoms: _511  and  _513
REMARK  213  A    between atoms: _513  and  _514
REMARK  214  A    between atoms: _513  and  _516
REMARK  215  A    between atoms: _516  and  _517
REMARK                            x       y       z     vdW  Elec       q    Type
REMARK                         _______ _______ _______ _____ _____    ______ ____
ROOT
ATOM      1  O   HOH     1      21.912  42.419  36.643  0.00  0.00    +0.000 OA
ENDROOT
TORSDOF 0
REMARK  Name = ../refined-set-2016/3wjw/3wjw_pocket.pdb
REMARK  215 active torsions:
REMARK  status: ('A' for Active; 'I' for Inactive)
REMARK    1  A    between atoms: _1  and  _3
REMARK    2  A    between atoms: _3  and  _4
REMARK    3  A    between atoms: _3  and  _6
REMARK    4  A    between atoms: _6  and  _7
REMARK    5  A    between atoms: _10  and  _12
REMARK    6  A    between atoms: _12  and  _13
REMARK    7  A    between atoms: _12  and  _15
REMARK    8  A    between atoms: _15  and  _16
REMARK    9  A    between atoms: _19  and  _21
REMARK   10  A    between atoms: _21  and  _22
REMARK   11  A    between atoms: _25  and  _27
REMARK   12  A    between atoms: _27  and  _28
REMARK   13  A    between atoms: _27  and  _30
REMARK   14  A    between atoms: _30  and  _31
REMARK   15  A    between atoms: _31  and  _32
REMARK   16  A    between atoms: _34  and  _36
REMARK   17  A    between atoms: _36  and  _37
REMARK   18  A    between atoms: _36  and  _39
REMARK   19  A    between atoms: _39  and  _40
REMARK   20  A    between atoms: _43  and  _45
REMARK   21  A    between atoms: _45  and  _46
REMARK   22  A    between atoms: _45  and  _48
REMARK   23  A    between atoms: _48  and  _49
REMARK   24  A    between atoms: _49  and  _50
REMARK   25  A    between atoms: _50  and  _51
REMARK   26  A    between atoms: _51  and  _52
REMARK   27  A    between atoms: _56  and  _58
REMARK   28  A    between atoms: _58  and  _59
REMARK   29  A    between atoms: _58  and  _61
REMARK   30  A    between atoms: _61  and  _62
REMARK   31  A    between atoms: _65  and  _67
REMARK   32  A    between atoms: _67  and  _68
REMARK   33  A    between atoms: _70  and  _72
REMARK   34  A    between atoms: _72  and  _73
REMARK   35  A    between atoms: _72  and  _75
REMARK   36  A    between atoms: _75  and  _76
REMARK   37  A    between atoms: _81  and  _82
REMARK   38  A    between atoms: _85  and  _86
REMARK   39  A    between atoms: _91  and  _93
REMARK   40  A    between atoms: _93  and  _94
REMARK   41  A    between atoms: _93  and  _96
REMARK   42  A    between atoms: _96  and  _97
REMARK   43  A    between atoms: _100  and  _102
REMARK   44  A    between atoms: _102  and  _103
REMARK   45  A    between atoms: _102  and  _105
REMARK   46  A    between atoms: _105  and  _106
REMARK   47  A    between atoms: _109  and  _111
REMARK   48  A    between atoms: _111  and  _112
REMARK   49  A    between atoms: _111  and  _114
REMARK   50  A    between atoms: _114  and  _115
REMARK   51  A    between atoms: _118  and  _120
REMARK   52  A    between atoms: _120  and  _121
REMARK   53  A    between atoms: _120  and  _123
REMARK   54  A    between atoms: _123  and  _124
REMARK   55  A    between atoms: _130  and  _132
REMARK   56  A    between atoms: _132  and  _133
REMARK   57  A    between atoms: _132  and  _135
REMARK   58  A    between atoms: _135  and  _136
REMARK   59  A    between atoms: _136  and  _137
REMARK   60  A    between atoms: _137  and  _138
REMARK   61  A    between atoms: _138  and  _139
REMARK   62  A    between atoms: _143  and  _145
REMARK   63  A    between atoms: _145  and  _146
REMARK   64  A    between atoms: _145  and  _148
REMARK   65  A    between atoms: _148  and  _149
REMARK   66  A    between atoms: _152  and  _154
REMARK   67  A    between atoms: _154  and  _155
REMARK   68  A    between atoms: _154  and  _157
REMARK   69  A    between atoms: _157  and  _158
REMARK   70  A    between atoms: _163  and  _165
REMARK   71  A    between atoms: _165  and  _166
REMARK   72  A    between atoms: _165  and  _168
REMARK   73  A    between atoms: _168  and  _169
REMARK   74  A    between atoms: _172  and  _174
REMARK   75  A    between atoms: _174  and  _175
REMARK   76  A    between atoms: _174  and  _177
REMARK   77  A    between atoms: _177  and  _178
REMARK   78  A    between atoms: _181  and  _183
REMARK   79  A    between atoms: _183  and  _184
REMARK   80  A    between atoms: _183  and  _186
REMARK   81  A    between atoms: _186  and  _187
REMARK   82  A    between atoms: _187  and  _188
REMARK   83  A    between atoms: _191  and  _193
REMARK   84  A    between atoms: _193  and  _194
REMARK   85  A    between atoms: _193  and  _196
REMARK   86  A    between atoms: _196  and  _197
REMARK   87  A    between atoms: _197  and  _198
REMARK   88  A    between atoms: _200  and  _202
REMARK   89  A    between atoms: _202  and  _203
REMARK   90  A    between atoms: _202  and  _205
REMARK   91  A    between atoms: _205  and  _206
REMARK   92  A    between atoms: _208  and  _210
REMARK   93  A    between atoms: _210  and  _211
REMARK   94  A    between atoms: _210  and  _213
REMARK   95  A    between atoms: _213  and  _214
REMARK   96  A    between atoms: _219  and  _221
REMARK   97  A    between atoms: _221  and  _222
REMARK   98  A    between atoms: _225  and  _227
REMARK   99  A    between atoms: _227  and  _228
REMARK  100  A    between atoms: _227  and  _230
REMARK  101  A    between atoms: _230  and  _231
REMARK  102  A    between atoms: _234  and  _236
REMARK  103  A    between atoms: _236  and  _237
REMARK  104  A    between atoms: _236  and  _239
REMARK  105  A    between atoms: _242  and  _244
REMARK  106  A    between atoms: _244  and  _245
REMARK  107  A    between atoms: _248  and  _249
REMARK  108  A    between atoms: _254  and  _256
REMARK  109  A    between atoms: _256  and  _257
REMARK  110  A    between atoms: _256  and  _259
REMARK  111  A    between atoms: _259  and  _260
REMARK  112  A    between atoms: _262  and  _264
REMARK  113  A    between atoms: _264  and  _265
REMARK  114  A    between atoms: _264  and  _267
REMARK  115  A    between atoms: _267  and  _268
REMARK  116  A    between atoms: _271  and  _273
REMARK  117  A    between atoms: _273  and  _274
REMARK  118  A    between atoms: _273  and  _276
REMARK  119  A    between atoms: _276  and  _277
REMARK  120  A    between atoms: _277  and  _278
REMARK  121  A    between atoms: _278  and  _279
REMARK  122  A    between atoms: _288  and  _290
REMARK  123  A    between atoms: _290  and  _291
REMARK  124  A    between atoms: _290  and  _293
REMARK  125  A    between atoms: _293  and  _294
REMARK  126  A    between atoms: _297  and  _299
REMARK  127  A    between atoms: _299  and  _300
REMARK  128  A    between atoms: _299  and  _302
REMARK  129  A    between atoms: _302  and  _303
REMARK  130  A    between atoms: _306  and  _307
REMARK  131  A    between atoms: _312  and  _314
REMARK  132  A    between atoms: _314  and  _315
REMARK  133  A    between atoms: _317  and  _319
REMARK  134  A    between atoms: _319  and  _320
REMARK  135  A    between atoms: _319  and  _322
REMARK  136  A    between atoms: _325  and  _327
REMARK  137  A    between atoms: _327  and  _328
REMARK  138  A    between atoms: _330  and  _332
REMARK  139  A    between atoms: _332  and  _333
REMARK  140  A    between atoms: _336  and  _338
REMARK  141  A    between atoms: _338  and  _339
REMARK  142  A    between atoms: _338  and  _341
REMARK  143  A    between atoms: _341  and  _342
REMARK  144  A    between atoms: _342  and  _343
REMARK  145  A    between atoms: _348  and  _350
REMARK  146  A    between atoms: _350  and  _351
REMARK  147  A    between atoms: _353  and  _355
REMARK  148  A    between atoms: _355  and  _356
REMARK  149  A    between atoms: _358  and  _360
REMARK  150  A    between atoms: _360  and  _361
REMARK  151  A    between atoms: _360  and  _363
REMARK  152  A    between atoms: _363  and  _364
REMARK  153  A    between atoms: _367  and  _369
REMARK  154  A    between atoms: _369  and  _370
REMARK  155  A    between atoms: _369  and  _372
REMARK  156  A    between atoms: _375  and  _377
REMARK  157  A    between atoms: _377  and  _378
REMARK  158  A    between atoms: _380  and  _382
REMARK  159  A    between atoms: _382  and  _383
REMARK  160  A    between atoms: _382  and  _385
REMARK  161  A    between atoms: _385  and  _386
REMARK  162  A    between atoms: _386  and  _387
REMARK  163  A    between atoms: _387  and  _388
REMARK  164  A    between atoms: _397  and  _399
REMARK  165  A    between atoms: _399  and  _400
REMARK  166  A    between atoms: _399  and  _402
REMARK  167  A    between atoms: _402  and  _403
REMARK  168  A    between atoms: _405  and  _407
REMARK  169  A    between atoms: _407  and  _408
REMARK  170  A    between atoms: _407  and  _410
REMARK  171  A    between atoms: _410  and  _411
REMARK  172  A    between atoms: _414  and  _416
REMARK  173  A    between atoms: _416  and  _417
REMARK  174  A    between atoms: _416  and  _419
REMARK  175  A    between atoms: _419  and  _420
REMARK  176  A    between atoms: _425  and  _426
REMARK  177  A    between atoms: _428  and  _430
REMARK  178  A    between atoms: _430  and  _431
REMARK  179  A    between atoms: _430  and  _433
REMARK  180  A    between atoms: _433  and  _434
REMARK  181  A    between atoms: _437  and  _439
REMARK  182  A    between atoms: _439  and  _440
REMARK  183  A    between atoms: _443  and  _445
REMARK  184  A    between atoms: _445  and  _446
REMARK  185  A    between atoms: _445  and  _448
REMARK  186  A    between atoms: _448  and  _449
REMARK  187  A    between atoms: _452  and  _454
REMARK  188  A    between atoms: _454  and  _455
REMARK  189  A    between atoms: _454  and  _457
REMARK  190  A    between atoms: _457  and  _458
REMARK  191  A    between atoms: _462  and  _463
REMARK  192  A    between atoms: _468  and  _470
REMARK  193  A    between atoms: _470  and  _471
REMARK  194  A    between atoms: _470  and  _473
REMARK  195  A    between atoms: _473  and  _474
REMARK  196  A    between atoms: _474  and  _475
REMARK  197  A    between atoms: _478  and  _480
REMARK  198  A    between atoms: _480  and  _481
REMARK  199  A    between atoms: _480  and  _483
REMARK  200  A    between atoms: _483  and  _484
REMARK  201  A    between atoms: _487  and  _489
REMARK  202  A    between atoms: _489  and  _490
REMARK  203  A    between atoms: _489  and  _492
REMARK  204  A    between atoms: _492  and  _493
REMARK  205  A    between atoms: _498  and  _500
REMARK  206  A    between atoms: _500  and  _501
REMARK  207  A    between atoms: _500  and  _503
REMARK  208  A    between atoms: _503  and  _504
REMARK  209  A    between atoms: _504  and  _505
REMARK  210  A    between atoms: _505  and  _506
REMARK  211  A    between atoms: _506  and  _507
REMARK  212  A    between atoms: _511  and  _513
REMARK  213  A    between atoms: _513  and  _514
REMARK  214  A    between atoms: _513  and  _516
REMARK  215  A    between atoms: _516  and  _517
REMARK                            x       y       z     vdW  Elec       q    Type
REMARK                         _______ _______ _______ _____ _____    ______ ____
ROOT
ATOM      1  O   HOH     1      21.903  39.045  41.182  0.00  0.00    +0.000 OA
ENDROOT
TORSDOF 0
REMARK  Name = ../refined-set-2016/3wjw/3wjw_pocket.pdb
REMARK  215 active torsions:
REMARK  status: ('A' for Active; 'I' for Inactive)
REMARK    1  A    between atoms: _1  and  _3
REMARK    2  A    between atoms: _3  and  _4
REMARK    3  A    between atoms: _3  and  _6
REMARK    4  A    between atoms: _6  and  _7
REMARK    5  A    between atoms: _10  and  _12
REMARK    6  A    between atoms: _12  and  _13
REMARK    7  A    between atoms: _12  and  _15
REMARK    8  A    between atoms: _15  and  _16
REMARK    9  A    between atoms: _19  and  _21
REMARK   10  A    between atoms: _21  and  _22
REMARK   11  A    between atoms: _25  and  _27
REMARK   12  A    between atoms: _27  and  _28
REMARK   13  A    between atoms: _27  and  _30
REMARK   14  A    between atoms: _30  and  _31
REMARK   15  A    between atoms: _31  and  _32
REMARK   16  A    between atoms: _34  and  _36
REMARK   17  A    between atoms: _36  and  _37
REMARK   18  A    between atoms: _36  and  _39
REMARK   19  A    between atoms: _39  and  _40
REMARK   20  A    between atoms: _43  and  _45
REMARK   21  A    between atoms: _45  and  _46
REMARK   22  A    between atoms: _45  and  _48
REMARK   23  A    between atoms: _48  and  _49
REMARK   24  A    between atoms: _49  and  _50
REMARK   25  A    between atoms: _50  and  _51
REMARK   26  A    between atoms: _51  and  _52
REMARK   27  A    between atoms: _56  and  _58
REMARK   28  A    between atoms: _58  and  _59
REMARK   29  A    between atoms: _58  and  _61
REMARK   30  A    between atoms: _61  and  _62
REMARK   31  A    between atoms: _65  and  _67
REMARK   32  A    between atoms: _67  and  _68
REMARK   33  A    between atoms: _70  and  _72
REMARK   34  A    between atoms: _72  and  _73
REMARK   35  A    between atoms: _72  and  _75
REMARK   36  A    between atoms: _75  and  _76
REMARK   37  A    between atoms: _81  and  _82
REMARK   38  A    between atoms: _85  and  _86
REMARK   39  A    between atoms: _91  and  _93
REMARK   40  A    between atoms: _93  and  _94
REMARK   41  A    between atoms: _93  and  _96
REMARK   42  A    between atoms: _96  and  _97
REMARK   43  A    between atoms: _100  and  _102
REMARK   44  A    between atoms: _102  and  _103
REMARK   45  A    between atoms: _102  and  _105
REMARK   46  A    between atoms: _105  and  _106
REMARK   47  A    between atoms: _109  and  _111
REMARK   48  A    between atoms: _111  and  _112
REMARK   49  A    between atoms: _111  and  _114
REMARK   50  A    between atoms: _114  and  _115
REMARK   51  A    between atoms: _118  and  _120
REMARK   52  A    between atoms: _120  and  _121
REMARK   53  A    between atoms: _120  and  _123
REMARK   54  A    between atoms: _123  and  _124
REMARK   55  A    between atoms: _130  and  _132
REMARK   56  A    between atoms: _132  and  _133
REMARK   57  A    between atoms: _132  and  _135
REMARK   58  A    between atoms: _135  and  _136
REMARK   59  A    between atoms: _136  and  _137
REMARK   60  A    between atoms: _137  and  _138
REMARK   61  A    between atoms: _138  and  _139
REMARK   62  A    between atoms: _143  and  _145
REMARK   63  A    between atoms: _145  and  _146
REMARK   64  A    between atoms: _145  and  _148
REMARK   65  A    between atoms: _148  and  _149
REMARK   66  A    between atoms: _152  and  _154
REMARK   67  A    between atoms: _154  and  _155
REMARK   68  A    between atoms: _154  and  _157
REMARK   69  A    between atoms: _157  and  _158
REMARK   70  A    between atoms: _163  and  _165
REMARK   71  A    between atoms: _165  and  _166
REMARK   72  A    between atoms: _165  and  _168
REMARK   73  A    between atoms: _168  and  _169
REMARK   74  A    between atoms: _172  and  _174
REMARK   75  A    between atoms: _174  and  _175
REMARK   76  A    between atoms: _174  and  _177
REMARK   77  A    between atoms: _177  and  _178
REMARK   78  A    between atoms: _181  and  _183
REMARK   79  A    between atoms: _183  and  _184
REMARK   80  A    between atoms: _183  and  _186
REMARK   81  A    between atoms: _186  and  _187
REMARK   82  A    between atoms: _187  and  _188
REMARK   83  A    between atoms: _191  and  _193
REMARK   84  A    between atoms: _193  and  _194
REMARK   85  A    between atoms: _193  and  _196
REMARK   86  A    between atoms: _196  and  _197
REMARK   87  A    between atoms: _197  and  _198
REMARK   88  A    between atoms: _200  and  _202
REMARK   89  A    between atoms: _202  and  _203
REMARK   90  A    between atoms: _202  and  _205
REMARK   91  A    between atoms: _205  and  _206
REMARK   92  A    between atoms: _208  and  _210
REMARK   93  A    between atoms: _210  and  _211
REMARK   94  A    between atoms: _210  and  _213
REMARK   95  A    between atoms: _213  and  _214
REMARK   96  A    between atoms: _219  and  _221
REMARK   97  A    between atoms: _221  and  _222
REMARK   98  A    between atoms: _225  and  _227
REMARK   99  A    between atoms: _227  and  _228
REMARK  100  A    between atoms: _227  and  _230
REMARK  101  A    between atoms: _230  and  _231
REMARK  102  A    between atoms: _234  and  _236
REMARK  103  A    between atoms: _236  and  _237
REMARK  104  A    between atoms: _236  and  _239
REMARK  105  A    between atoms: _242  and  _244
REMARK  106  A    between atoms: _244  and  _245
REMARK  107  A    between atoms: _248  and  _249
REMARK  108  A    between atoms: _254  and  _256
REMARK  109  A    between atoms: _256  and  _257
REMARK  110  A    between atoms: _256  and  _259
REMARK  111  A    between atoms: _259  and  _260
REMARK  112  A    between atoms: _262  and  _264
REMARK  113  A    between atoms: _264  and  _265
REMARK  114  A    between atoms: _264  and  _267
REMARK  115  A    between atoms: _267  and  _268
REMARK  116  A    between atoms: _271  and  _273
REMARK  117  A    between atoms: _273  and  _274
REMARK  118  A    between atoms: _273  and  _276
REMARK  119  A    between atoms: _276  and  _277
REMARK  120  A    between atoms: _277  and  _278
REMARK  121  A    between atoms: _278  and  _279
REMARK  122  A    between atoms: _288  and  _290
REMARK  123  A    between atoms: _290  and  _291
REMARK  124  A    between atoms: _290  and  _293
REMARK  125  A    between atoms: _293  and  _294
REMARK  126  A    between atoms: _297  and  _299
REMARK  127  A    between atoms: _299  and  _300
REMARK  128  A    between atoms: _299  and  _302
REMARK  129  A    between atoms: _302  and  _303
REMARK  130  A    between atoms: _306  and  _307
REMARK  131  A    between atoms: _312  and  _314
REMARK  132  A    between atoms: _314  and  _315
REMARK  133  A    between atoms: _317  and  _319
REMARK  134  A    between atoms: _319  and  _320
REMARK  135  A    between atoms: _319  and  _322
REMARK  136  A    between atoms: _325  and  _327
REMARK  137  A    between atoms: _327  and  _328
REMARK  138  A    between atoms: _330  and  _332
REMARK  139  A    between atoms: _332  and  _333
REMARK  140  A    between atoms: _336  and  _338
REMARK  141  A    between atoms: _338  and  _339
REMARK  142  A    between atoms: _338  and  _341
REMARK  143  A    between atoms: _341  and  _342
REMARK  144  A    between atoms: _342  and  _343
REMARK  145  A    between atoms: _348  and  _350
REMARK  146  A    between atoms: _350  and  _351
REMARK  147  A    between atoms: _353  and  _355
REMARK  148  A    between atoms: _355  and  _356
REMARK  149  A    between atoms: _358  and  _360
REMARK  150  A    between atoms: _360  and  _361
REMARK  151  A    between atoms: _360  and  _363
REMARK  152  A    between atoms: _363  and  _364
REMARK  153  A    between atoms: _367  and  _369
REMARK  154  A    between atoms: _369  and  _370
REMARK  155  A    between atoms: _369  and  _372
REMARK  156  A    between atoms: _375  and  _377
REMARK  157  A    between atoms: _377  and  _378
REMARK  158  A    between atoms: _380  and  _382
REMARK  159  A    between atoms: _382  and  _383
REMARK  160  A    between atoms: _382  and  _385
REMARK  161  A    between atoms: _385  and  _386
REMARK  162  A    between atoms: _386  and  _387
REMARK  163  A    between atoms: _387  and  _388
REMARK  164  A    between atoms: _397  and  _399
REMARK  165  A    between atoms: _399  and  _400
REMARK  166  A    between atoms: _399  and  _402
REMARK  167  A    between atoms: _402  and  _403
REMARK  168  A    between atoms: _405  and  _407
REMARK  169  A    between atoms: _407  and  _408
REMARK  170  A    between atoms: _407  and  _410
REMARK  171  A    between atoms: _410  and  _411
REMARK  172  A    between atoms: _414  and  _416
REMARK  173  A    between atoms: _416  and  _417
REMARK  174  A    between atoms: _416  and  _419
REMARK  175  A    between atoms: _419  and  _420
REMARK  176  A    between atoms: _425  and  _426
REMARK  177  A    between atoms: _428  and  _430
REMARK  178  A    between atoms: _430  and  _431
REMARK  179  A    between atoms: _430  and  _433
REMARK  180  A    between atoms: _433  and  _434
REMARK  181  A    between atoms: _437  and  _439
REMARK  182  A    between atoms: _439  and  _440
REMARK  183  A    between atoms: _443  and  _445
REMARK  184  A    between atoms: _445  and  _446
REMARK  185  A    between atoms: _445  and  _448
REMARK  186  A    between atoms: _448  and  _449
REMARK  187  A    between atoms: _452  and  _454
REMARK  188  A    between atoms: _454  and  _455
REMARK  189  A    between atoms: _454  and  _457
REMARK  190  A    between atoms: _457  and  _458
REMARK  191  A    between atoms: _462  and  _463
REMARK  192  A    between atoms: _468  and  _470
REMARK  193  A    between atoms: _470  and  _471
REMARK  194  A    between atoms: _470  and  _473
REMARK  195  A    between atoms: _473  and  _474
REMARK  196  A    between atoms: _474  and  _475
REMARK  197  A    between atoms: _478  and  _480
REMARK  198  A    between atoms: _480  and  _481
REMARK  199  A    between atoms: _480  and  _483
REMARK  200  A    between atoms: _483  and  _484
REMARK  201  A    between atoms: _487  and  _489
REMARK  202  A    between atoms: _489  and  _490
REMARK  203  A    between atoms: _489  and  _492
REMARK  204  A    between atoms: _492  and  _493
REMARK  205  A    between atoms: _498  and  _500
REMARK  206  A    between atoms: _500  and  _501
REMARK  207  A    between atoms: _500  and  _503
REMARK  208  A    between atoms: _503  and  _504
REMARK  209  A    between atoms: _504  and  _505
REMARK  210  A    between atoms: _505  and  _506
REMARK  211  A    between atoms: _506  and  _507
REMARK  212  A    between atoms: _511  and  _513
REMARK  213  A    between atoms: _513  and  _514
REMARK  214  A    between atoms: _513  and  _516
REMARK  215  A    between atoms: _516  and  _517
REMARK                            x       y       z     vdW  Elec       q    Type
REMARK                         _______ _______ _______ _____ _____    ______ ____
ROOT
ATOM      1  O   HOH     1      22.228  45.238  36.680  0.00  0.00    +0.000 OA
ENDROOT
TORSDOF 0
REMARK  Name = ../refined-set-2016/3wjw/3wjw_pocket.pdb
REMARK  215 active torsions:
REMARK  status: ('A' for Active; 'I' for Inactive)
REMARK    1  A    between atoms: _1  and  _3
REMARK    2  A    between atoms: _3  and  _4
REMARK    3  A    between atoms: _3  and  _6
REMARK    4  A    between atoms: _6  and  _7
REMARK    5  A    between atoms: _10  and  _12
REMARK    6  A    between atoms: _12  and  _13
REMARK    7  A    between atoms: _12  and  _15
REMARK    8  A    between atoms: _15  and  _16
REMARK    9  A    between atoms: _19  and  _21
REMARK   10  A    between atoms: _21  and  _22
REMARK   11  A    between atoms: _25  and  _27
REMARK   12  A    between atoms: _27  and  _28
REMARK   13  A    between atoms: _27  and  _30
REMARK   14  A    between atoms: _30  and  _31
REMARK   15  A    between atoms: _31  and  _32
REMARK   16  A    between atoms: _34  and  _36
REMARK   17  A    between atoms: _36  and  _37
REMARK   18  A    between atoms: _36  and  _39
REMARK   19  A    between atoms: _39  and  _40
REMARK   20  A    between atoms: _43  and  _45
REMARK   21  A    between atoms: _45  and  _46
REMARK   22  A    between atoms: _45  and  _48
REMARK   23  A    between atoms: _48  and  _49
REMARK   24  A    between atoms: _49  and  _50
REMARK   25  A    between atoms: _50  and  _51
REMARK   26  A    between atoms: _51  and  _52
REMARK   27  A    between atoms: _56  and  _58
REMARK   28  A    between atoms: _58  and  _59
REMARK   29  A    between atoms: _58  and  _61
REMARK   30  A    between atoms: _61  and  _62
REMARK   31  A    between atoms: _65  and  _67
REMARK   32  A    between atoms: _67  and  _68
REMARK   33  A    between atoms: _70  and  _72
REMARK   34  A    between atoms: _72  and  _73
REMARK   35  A    between atoms: _72  and  _75
REMARK   36  A    between atoms: _75  and  _76
REMARK   37  A    between atoms: _81  and  _82
REMARK   38  A    between atoms: _85  and  _86
REMARK   39  A    between atoms: _91  and  _93
REMARK   40  A    between atoms: _93  and  _94
REMARK   41  A    between atoms: _93  and  _96
REMARK   42  A    between atoms: _96  and  _97
REMARK   43  A    between atoms: _100  and  _102
REMARK   44  A    between atoms: _102  and  _103
REMARK   45  A    between atoms: _102  and  _105
REMARK   46  A    between atoms: _105  and  _106
REMARK   47  A    between atoms: _109  and  _111
REMARK   48  A    between atoms: _111  and  _112
REMARK   49  A    between atoms: _111  and  _114
REMARK   50  A    between atoms: _114  and  _115
REMARK   51  A    between atoms: _118  and  _120
REMARK   52  A    between atoms: _120  and  _121
REMARK   53  A    between atoms: _120  and  _123
REMARK   54  A    between atoms: _123  and  _124
REMARK   55  A    between atoms: _130  and  _132
REMARK   56  A    between atoms: _132  and  _133
REMARK   57  A    between atoms: _132  and  _135
REMARK   58  A    between atoms: _135  and  _136
REMARK   59  A    between atoms: _136  and  _137
REMARK   60  A    between atoms: _137  and  _138
REMARK   61  A    between atoms: _138  and  _139
REMARK   62  A    between atoms: _143  and  _145
REMARK   63  A    between atoms: _145  and  _146
REMARK   64  A    between atoms: _145  and  _148
REMARK   65  A    between atoms: _148  and  _149
REMARK   66  A    between atoms: _152  and  _154
REMARK   67  A    between atoms: _154  and  _155
REMARK   68  A    between atoms: _154  and  _157
REMARK   69  A    between atoms: _157  and  _158
REMARK   70  A    between atoms: _163  and  _165
REMARK   71  A    between atoms: _165  and  _166
REMARK   72  A    between atoms: _165  and  _168
REMARK   73  A    between atoms: _168  and  _169
REMARK   74  A    between atoms: _172  and  _174
REMARK   75  A    between atoms: _174  and  _175
REMARK   76  A    between atoms: _174  and  _177
REMARK   77  A    between atoms: _177  and  _178
REMARK   78  A    between atoms: _181  and  _183
REMARK   79  A    between atoms: _183  and  _184
REMARK   80  A    between atoms: _183  and  _186
REMARK   81  A    between atoms: _186  and  _187
REMARK   82  A    between atoms: _187  and  _188
REMARK   83  A    between atoms: _191  and  _193
REMARK   84  A    between atoms: _193  and  _194
REMARK   85  A    between atoms: _193  and  _196
REMARK   86  A    between atoms: _196  and  _197
REMARK   87  A    between atoms: _197  and  _198
REMARK   88  A    between atoms: _200  and  _202
REMARK   89  A    between atoms: _202  and  _203
REMARK   90  A    between atoms: _202  and  _205
REMARK   91  A    between atoms: _205  and  _206
REMARK   92  A    between atoms: _208  and  _210
REMARK   93  A    between atoms: _210  and  _211
REMARK   94  A    between atoms: _210  and  _213
REMARK   95  A    between atoms: _213  and  _214
REMARK   96  A    between atoms: _219  and  _221
REMARK   97  A    between atoms: _221  and  _222
REMARK   98  A    between atoms: _225  and  _227
REMARK   99  A    between atoms: _227  and  _228
REMARK  100  A    between atoms: _227  and  _230
REMARK  101  A    between atoms: _230  and  _231
REMARK  102  A    between atoms: _234  and  _236
REMARK  103  A    between atoms: _236  and  _237
REMARK  104  A    between atoms: _236  and  _239
REMARK  105  A    between atoms: _242  and  _244
REMARK  106  A    between atoms: _244  and  _245
REMARK  107  A    between atoms: _248  and  _249
REMARK  108  A    between atoms: _254  and  _256
REMARK  109  A    between atoms: _256  and  _257
REMARK  110  A    between atoms: _256  and  _259
REMARK  111  A    between atoms: _259  and  _260
REMARK  112  A    between atoms: _262  and  _264
REMARK  113  A    between atoms: _264  and  _265
REMARK  114  A    between atoms: _264  and  _267
REMARK  115  A    between atoms: _267  and  _268
REMARK  116  A    between atoms: _271  and  _273
REMARK  117  A    between atoms: _273  and  _274
REMARK  118  A    between atoms: _273  and  _276
REMARK  119  A    between atoms: _276  and  _277
REMARK  120  A    between atoms: _277  and  _278
REMARK  121  A    between atoms: _278  and  _279
REMARK  122  A    between atoms: _288  and  _290
REMARK  123  A    between atoms: _290  and  _291
REMARK  124  A    between atoms: _290  and  _293
REMARK  125  A    between atoms: _293  and  _294
REMARK  126  A    between atoms: _297  and  _299
REMARK  127  A    between atoms: _299  and  _300
REMARK  128  A    between atoms: _299  and  _302
REMARK  129  A    between atoms: _302  and  _303
REMARK  130  A    between atoms: _306  and  _307
REMARK  131  A    between atoms: _312  and  _314
REMARK  132  A    between atoms: _314  and  _315
REMARK  133  A    between atoms: _317  and  _319
REMARK  134  A    between atoms: _319  and  _320
REMARK  135  A    between atoms: _319  and  _322
REMARK  136  A    between atoms: _325  and  _327
REMARK  137  A    between atoms: _327  and  _328
REMARK  138  A    between atoms: _330  and  _332
REMARK  139  A    between atoms: _332  and  _333
REMARK  140  A    between atoms: _336  and  _338
REMARK  141  A    between atoms: _338  and  _339
REMARK  142  A    between atoms: _338  and  _341
REMARK  143  A    between atoms: _341  and  _342
REMARK  144  A    between atoms: _342  and  _343
REMARK  145  A    between atoms: _348  and  _350
REMARK  146  A    between atoms: _350  and  _351
REMARK  147  A    between atoms: _353  and  _355
REMARK  148  A    between atoms: _355  and  _356
REMARK  149  A    between atoms: _358  and  _360
REMARK  150  A    between atoms: _360  and  _361
REMARK  151  A    between atoms: _360  and  _363
REMARK  152  A    between atoms: _363  and  _364
REMARK  153  A    between atoms: _367  and  _369
REMARK  154  A    between atoms: _369  and  _370
REMARK  155  A    between atoms: _369  and  _372
REMARK  156  A    between atoms: _375  and  _377
REMARK  157  A    between atoms: _377  and  _378
REMARK  158  A    between atoms: _380  and  _382
REMARK  159  A    between atoms: _382  and  _383
REMARK  160  A    between atoms: _382  and  _385
REMARK  161  A    between atoms: _385  and  _386
REMARK  162  A    between atoms: _386  and  _387
REMARK  163  A    between atoms: _387  and  _388
REMARK  164  A    between atoms: _397  and  _399
REMARK  165  A    between atoms: _399  and  _400
REMARK  166  A    between atoms: _399  and  _402
REMARK  167  A    between atoms: _402  and  _403
REMARK  168  A    between atoms: _405  and  _407
REMARK  169  A    between atoms: _407  and  _408
REMARK  170  A    between atoms: _407  and  _410
REMARK  171  A    between atoms: _410  and  _411
REMARK  172  A    between atoms: _414  and  _416
REMARK  173  A    between atoms: _416  and  _417
REMARK  174  A    between atoms: _416  and  _419
REMARK  175  A    between atoms: _419  and  _420
REMARK  176  A    between atoms: _425  and  _426
REMARK  177  A    between atoms: _428  and  _430
REMARK  178  A    between atoms: _430  and  _431
REMARK  179  A    between atoms: _430  and  _433
REMARK  180  A    between atoms: _433  and  _434
REMARK  181  A    between atoms: _437  and  _439
REMARK  182  A    between atoms: _439  and  _440
REMARK  183  A    between atoms: _443  and  _445
REMARK  184  A    between atoms: _445  and  _446
REMARK  185  A    between atoms: _445  and  _448
REMARK  186  A    between atoms: _448  and  _449
REMARK  187  A    between atoms: _452  and  _454
REMARK  188  A    between atoms: _454  and  _455
REMARK  189  A    between atoms: _454  and  _457
REMARK  190  A    between atoms: _457  and  _458
REMARK  191  A    between atoms: _462  and  _463
REMARK  192  A    between atoms: _468  and  _470
REMARK  193  A    between atoms: _470  and  _471
REMARK  194  A    between atoms: _470  and  _473
REMARK  195  A    between atoms: _473  and  _474
REMARK  196  A    between atoms: _474  and  _475
REMARK  197  A    between atoms: _478  and  _480
REMARK  198  A    between atoms: _480  and  _481
REMARK  199  A    between atoms: _480  and  _483
REMARK  200  A    between atoms: _483  and  _484
REMARK  201  A    between atoms: _487  and  _489
REMARK  202  A    between atoms: _489  and  _490
REMARK  203  A    between atoms: _489  and  _492
REMARK  204  A    between atoms: _492  and  _493
REMARK  205  A    between atoms: _498  and  _500
REMARK  206  A    between atoms: _500  and  _501
REMARK  207  A    between atoms: _500  and  _503
REMARK  208  A    between atoms: _503  and  _504
REMARK  209  A    between atoms: _504  and  _505
REMARK  210  A    between atoms: _505  and  _506
REMARK  211  A    between atoms: _506  and  _507
REMARK  212  A    between atoms: _511  and  _513
REMARK  213  A    between atoms: _513  and  _514
REMARK  214  A    between atoms: _513  and  _516
REMARK  215  A    between atoms: _516  and  _517
REMARK                            x       y       z     vdW  Elec       q    Type
REMARK                         _______ _______ _______ _____ _____    ______ ____
ROOT
ATOM      1  O   HOH     1      11.917  36.614  41.897  0.00  0.00    +0.000 OA
ENDROOT
TORSDOF 0
REMARK  Name = ../refined-set-2016/3wjw/3wjw_pocket.pdb
REMARK  215 active torsions:
REMARK  status: ('A' for Active; 'I' for Inactive)
REMARK    1  A    between atoms: _1  and  _3
REMARK    2  A    between atoms: _3  and  _4
REMARK    3  A    between atoms: _3  and  _6
REMARK    4  A    between atoms: _6  and  _7
REMARK    5  A    between atoms: _10  and  _12
REMARK    6  A    between atoms: _12  and  _13
REMARK    7  A    between atoms: _12  and  _15
REMARK    8  A    between atoms: _15  and  _16
REMARK    9  A    between atoms: _19  and  _21
REMARK   10  A    between atoms: _21  and  _22
REMARK   11  A    between atoms: _25  and  _27
REMARK   12  A    between atoms: _27  and  _28
REMARK   13  A    between atoms: _27  and  _30
REMARK   14  A    between atoms: _30  and  _31
REMARK   15  A    between atoms: _31  and  _32
REMARK   16  A    between atoms: _34  and  _36
REMARK   17  A    between atoms: _36  and  _37
REMARK   18  A    between atoms: _36  and  _39
REMARK   19  A    between atoms: _39  and  _40
REMARK   20  A    between atoms: _43  and  _45
REMARK   21  A    between atoms: _45  and  _46
REMARK   22  A    between atoms: _45  and  _48
REMARK   23  A    between atoms: _48  and  _49
REMARK   24  A    between atoms: _49  and  _50
REMARK   25  A    between atoms: _50  and  _51
REMARK   26  A    between atoms: _51  and  _52
REMARK   27  A    between atoms: _56  and  _58
REMARK   28  A    between atoms: _58  and  _59
REMARK   29  A    between atoms: _58  and  _61
REMARK   30  A    between atoms: _61  and  _62
REMARK   31  A    between atoms: _65  and  _67
REMARK   32  A    between atoms: _67  and  _68
REMARK   33  A    between atoms: _70  and  _72
REMARK   34  A    between atoms: _72  and  _73
REMARK   35  A    between atoms: _72  and  _75
REMARK   36  A    between atoms: _75  and  _76
REMARK   37  A    between atoms: _81  and  _82
REMARK   38  A    between atoms: _85  and  _86
REMARK   39  A    between atoms: _91  and  _93
REMARK   40  A    between atoms: _93  and  _94
REMARK   41  A    between atoms: _93  and  _96
REMARK   42  A    between atoms: _96  and  _97
REMARK   43  A    between atoms: _100  and  _102
REMARK   44  A    between atoms: _102  and  _103
REMARK   45  A    between atoms: _102  and  _105
REMARK   46  A    between atoms: _105  and  _106
REMARK   47  A    between atoms: _109  and  _111
REMARK   48  A    between atoms: _111  and  _112
REMARK   49  A    between atoms: _111  and  _114
REMARK   50  A    between atoms: _114  and  _115
REMARK   51  A    between atoms: _118  and  _120
REMARK   52  A    between atoms: _120  and  _121
REMARK   53  A    between atoms: _120  and  _123
REMARK   54  A    between atoms: _123  and  _124
REMARK   55  A    between atoms: _130  and  _132
REMARK   56  A    between atoms: _132  and  _133
REMARK   57  A    between atoms: _132  and  _135
REMARK   58  A    between atoms: _135  and  _136
REMARK   59  A    between atoms: _136  and  _137
REMARK   60  A    between atoms: _137  and  _138
REMARK   61  A    between atoms: _138  and  _139
REMARK   62  A    between atoms: _143  and  _145
REMARK   63  A    between atoms: _145  and  _146
REMARK   64  A    between atoms: _145  and  _148
REMARK   65  A    between atoms: _148  and  _149
REMARK   66  A    between atoms: _152  and  _154
REMARK   67  A    between atoms: _154  and  _155
REMARK   68  A    between atoms: _154  and  _157
REMARK   69  A    between atoms: _157  and  _158
REMARK   70  A    between atoms: _163  and  _165
REMARK   71  A    between atoms: _165  and  _166
REMARK   72  A    between atoms: _165  and  _168
REMARK   73  A    between atoms: _168  and  _169
REMARK   74  A    between atoms: _172  and  _174
REMARK   75  A    between atoms: _174  and  _175
REMARK   76  A    between atoms: _174  and  _177
REMARK   77  A    between atoms: _177  and  _178
REMARK   78  A    between atoms: _181  and  _183
REMARK   79  A    between atoms: _183  and  _184
REMARK   80  A    between atoms: _183  and  _186
REMARK   81  A    between atoms: _186  and  _187
REMARK   82  A    between atoms: _187  and  _188
REMARK   83  A    between atoms: _191  and  _193
REMARK   84  A    between atoms: _193  and  _194
REMARK   85  A    between atoms: _193  and  _196
REMARK   86  A    between atoms: _196  and  _197
REMARK   87  A    between atoms: _197  and  _198
REMARK   88  A    between atoms: _200  and  _202
REMARK   89  A    between atoms: _202  and  _203
REMARK   90  A    between atoms: _202  and  _205
REMARK   91  A    between atoms: _205  and  _206
REMARK   92  A    between atoms: _208  and  _210
REMARK   93  A    between atoms: _210  and  _211
REMARK   94  A    between atoms: _210  and  _213
REMARK   95  A    between atoms: _213  and  _214
REMARK   96  A    between atoms: _219  and  _221
REMARK   97  A    between atoms: _221  and  _222
REMARK   98  A    between atoms: _225  and  _227
REMARK   99  A    between atoms: _227  and  _228
REMARK  100  A    between atoms: _227  and  _230
REMARK  101  A    between atoms: _230  and  _231
REMARK  102  A    between atoms: _234  and  _236
REMARK  103  A    between atoms: _236  and  _237
REMARK  104  A    between atoms: _236  and  _239
REMARK  105  A    between atoms: _242  and  _244
REMARK  106  A    between atoms: _244  and  _245
REMARK  107  A    between atoms: _248  and  _249
REMARK  108  A    between atoms: _254  and  _256
REMARK  109  A    between atoms: _256  and  _257
REMARK  110  A    between atoms: _256  and  _259
REMARK  111  A    between atoms: _259  and  _260
REMARK  112  A    between atoms: _262  and  _264
REMARK  113  A    between atoms: _264  and  _265
REMARK  114  A    between atoms: _264  and  _267
REMARK  115  A    between atoms: _267  and  _268
REMARK  116  A    between atoms: _271  and  _273
REMARK  117  A    between atoms: _273  and  _274
REMARK  118  A    between atoms: _273  and  _276
REMARK  119  A    between atoms: _276  and  _277
REMARK  120  A    between atoms: _277  and  _278
REMARK  121  A    between atoms: _278  and  _279
REMARK  122  A    between atoms: _288  and  _290
REMARK  123  A    between atoms: _290  and  _291
REMARK  124  A    between atoms: _290  and  _293
REMARK  125  A    between atoms: _293  and  _294
REMARK  126  A    between atoms: _297  and  _299
REMARK  127  A    between atoms: _299  and  _300
REMARK  128  A    between atoms: _299  and  _302
REMARK  129  A    between atoms: _302  and  _303
REMARK  130  A    between atoms: _306  and  _307
REMARK  131  A    between atoms: _312  and  _314
REMARK  132  A    between atoms: _314  and  _315
REMARK  133  A    between atoms: _317  and  _319
REMARK  134  A    between atoms: _319  and  _320
REMARK  135  A    between atoms: _319  and  _322
REMARK  136  A    between atoms: _325  and  _327
REMARK  137  A    between atoms: _327  and  _328
REMARK  138  A    between atoms: _330  and  _332
REMARK  139  A    between atoms: _332  and  _333
REMARK  140  A    between atoms: _336  and  _338
REMARK  141  A    between atoms: _338  and  _339
REMARK  142  A    between atoms: _338  and  _341
REMARK  143  A    between atoms: _341  and  _342
REMARK  144  A    between atoms: _342  and  _343
REMARK  145  A    between atoms: _348  and  _350
REMARK  146  A    between atoms: _350  and  _351
REMARK  147  A    between atoms: _353  and  _355
REMARK  148  A    between atoms: _355  and  _356
REMARK  149  A    between atoms: _358  and  _360
REMARK  150  A    between atoms: _360  and  _361
REMARK  151  A    between atoms: _360  and  _363
REMARK  152  A    between atoms: _363  and  _364
REMARK  153  A    between atoms: _367  and  _369
REMARK  154  A    between atoms: _369  and  _370
REMARK  155  A    between atoms: _369  and  _372
REMARK  156  A    between atoms: _375  and  _377
REMARK  157  A    between atoms: _377  and  _378
REMARK  158  A    between atoms: _380  and  _382
REMARK  159  A    between atoms: _382  and  _383
REMARK  160  A    between atoms: _382  and  _385
REMARK  161  A    between atoms: _385  and  _386
REMARK  162  A    between atoms: _386  and  _387
REMARK  163  A    between atoms: _387  and  _388
REMARK  164  A    between atoms: _397  and  _399
REMARK  165  A    between atoms: _399  and  _400
REMARK  166  A    between atoms: _399  and  _402
REMARK  167  A    between atoms: _402  and  _403
REMARK  168  A    between atoms: _405  and  _407
REMARK  169  A    between atoms: _407  and  _408
REMARK  170  A    between atoms: _407  and  _410
REMARK  171  A    between atoms: _410  and  _411
REMARK  172  A    between atoms: _414  and  _416
REMARK  173  A    between atoms: _416  and  _417
REMARK  174  A    between atoms: _416  and  _419
REMARK  175  A    between atoms: _419  and  _420
REMARK  176  A    between atoms: _425  and  _426
REMARK  177  A    between atoms: _428  and  _430
REMARK  178  A    between atoms: _430  and  _431
REMARK  179  A    between atoms: _430  and  _433
REMARK  180  A    between atoms: _433  and  _434
REMARK  181  A    between atoms: _437  and  _439
REMARK  182  A    between atoms: _439  and  _440
REMARK  183  A    between atoms: _443  and  _445
REMARK  184  A    between atoms: _445  and  _446
REMARK  185  A    between atoms: _445  and  _448
REMARK  186  A    between atoms: _448  and  _449
REMARK  187  A    between atoms: _452  and  _454
REMARK  188  A    between atoms: _454  and  _455
REMARK  189  A    between atoms: _454  and  _457
REMARK  190  A    between atoms: _457  and  _458
REMARK  191  A    between atoms: _462  and  _463
REMARK  192  A    between atoms: _468  and  _470
REMARK  193  A    between atoms: _470  and  _471
REMARK  194  A    between atoms: _470  and  _473
REMARK  195  A    between atoms: _473  and  _474
REMARK  196  A    between atoms: _474  and  _475
REMARK  197  A    between atoms: _478  and  _480
REMARK  198  A    between atoms: _480  and  _481
REMARK  199  A    between atoms: _480  and  _483
REMARK  200  A    between atoms: _483  and  _484
REMARK  201  A    between atoms: _487  and  _489
REMARK  202  A    between atoms: _489  and  _490
REMARK  203  A    between atoms: _489  and  _492
REMARK  204  A    between atoms: _492  and  _493
REMARK  205  A    between atoms: _498  and  _500
REMARK  206  A    between atoms: _500  and  _501
REMARK  207  A    between atoms: _500  and  _503
REMARK  208  A    between atoms: _503  and  _504
REMARK  209  A    between atoms: _504  and  _505
REMARK  210  A    between atoms: _505  and  _506
REMARK  211  A    between atoms: _506  and  _507
REMARK  212  A    between atoms: _511  and  _513
REMARK  213  A    between atoms: _513  and  _514
REMARK  214  A    between atoms: _513  and  _516
REMARK  215  A    between atoms: _516  and  _517
REMARK                            x       y       z     vdW  Elec       q    Type
REMARK                         _______ _______ _______ _____ _____    ______ ____
ROOT
ATOM      1  O   HOH     1      20.455  34.015  46.118  0.00  0.00    +0.000 OA
ENDROOT
TORSDOF 0
REMARK  Name = ../refined-set-2016/3wjw/3wjw_pocket.pdb
REMARK  215 active torsions:
REMARK  status: ('A' for Active; 'I' for Inactive)
REMARK    1  A    between atoms: _1  and  _3
REMARK    2  A    between atoms: _3  and  _4
REMARK    3  A    between atoms: _3  and  _6
REMARK    4  A    between atoms: _6  and  _7
REMARK    5  A    between atoms: _10  and  _12
REMARK    6  A    between atoms: _12  and  _13
REMARK    7  A    between atoms: _12  and  _15
REMARK    8  A    between atoms: _15  and  _16
REMARK    9  A    between atoms: _19  and  _21
REMARK   10  A    between atoms: _21  and  _22
REMARK   11  A    between atoms: _25  and  _27
REMARK   12  A    between atoms: _27  and  _28
REMARK   13  A    between atoms: _27  and  _30
REMARK   14  A    between atoms: _30  and  _31
REMARK   15  A    between atoms: _31  and  _32
REMARK   16  A    between atoms: _34  and  _36
REMARK   17  A    between atoms: _36  and  _37
REMARK   18  A    between atoms: _36  and  _39
REMARK   19  A    between atoms: _39  and  _40
REMARK   20  A    between atoms: _43  and  _45
REMARK   21  A    between atoms: _45  and  _46
REMARK   22  A    between atoms: _45  and  _48
REMARK   23  A    between atoms: _48  and  _49
REMARK   24  A    between atoms: _49  and  _50
REMARK   25  A    between atoms: _50  and  _51
REMARK   26  A    between atoms: _51  and  _52
REMARK   27  A    between atoms: _56  and  _58
REMARK   28  A    between atoms: _58  and  _59
REMARK   29  A    between atoms: _58  and  _61
REMARK   30  A    between atoms: _61  and  _62
REMARK   31  A    between atoms: _65  and  _67
REMARK   32  A    between atoms: _67  and  _68
REMARK   33  A    between atoms: _70  and  _72
REMARK   34  A    between atoms: _72  and  _73
REMARK   35  A    between atoms: _72  and  _75
REMARK   36  A    between atoms: _75  and  _76
REMARK   37  A    between atoms: _81  and  _82
REMARK   38  A    between atoms: _85  and  _86
REMARK   39  A    between atoms: _91  and  _93
REMARK   40  A    between atoms: _93  and  _94
REMARK   41  A    between atoms: _93  and  _96
REMARK   42  A    between atoms: _96  and  _97
REMARK   43  A    between atoms: _100  and  _102
REMARK   44  A    between atoms: _102  and  _103
REMARK   45  A    between atoms: _102  and  _105
REMARK   46  A    between atoms: _105  and  _106
REMARK   47  A    between atoms: _109  and  _111
REMARK   48  A    between atoms: _111  and  _112
REMARK   49  A    between atoms: _111  and  _114
REMARK   50  A    between atoms: _114  and  _115
REMARK   51  A    between atoms: _118  and  _120
REMARK   52  A    between atoms: _120  and  _121
REMARK   53  A    between atoms: _120  and  _123
REMARK   54  A    between atoms: _123  and  _124
REMARK   55  A    between atoms: _130  and  _132
REMARK   56  A    between atoms: _132  and  _133
REMARK   57  A    between atoms: _132  and  _135
REMARK   58  A    between atoms: _135  and  _136
REMARK   59  A    between atoms: _136  and  _137
REMARK   60  A    between atoms: _137  and  _138
REMARK   61  A    between atoms: _138  and  _139
REMARK   62  A    between atoms: _143  and  _145
REMARK   63  A    between atoms: _145  and  _146
REMARK   64  A    between atoms: _145  and  _148
REMARK   65  A    between atoms: _148  and  _149
REMARK   66  A    between atoms: _152  and  _154
REMARK   67  A    between atoms: _154  and  _155
REMARK   68  A    between atoms: _154  and  _157
REMARK   69  A    between atoms: _157  and  _158
REMARK   70  A    between atoms: _163  and  _165
REMARK   71  A    between atoms: _165  and  _166
REMARK   72  A    between atoms: _165  and  _168
REMARK   73  A    between atoms: _168  and  _169
REMARK   74  A    between atoms: _172  and  _174
REMARK   75  A    between atoms: _174  and  _175
REMARK   76  A    between atoms: _174  and  _177
REMARK   77  A    between atoms: _177  and  _178
REMARK   78  A    between atoms: _181  and  _183
REMARK   79  A    between atoms: _183  and  _184
REMARK   80  A    between atoms: _183  and  _186
REMARK   81  A    between atoms: _186  and  _187
REMARK   82  A    between atoms: _187  and  _188
REMARK   83  A    between atoms: _191  and  _193
REMARK   84  A    between atoms: _193  and  _194
REMARK   85  A    between atoms: _193  and  _196
REMARK   86  A    between atoms: _196  and  _197
REMARK   87  A    between atoms: _197  and  _198
REMARK   88  A    between atoms: _200  and  _202
REMARK   89  A    between atoms: _202  and  _203
REMARK   90  A    between atoms: _202  and  _205
REMARK   91  A    between atoms: _205  and  _206
REMARK   92  A    between atoms: _208  and  _210
REMARK   93  A    between atoms: _210  and  _211
REMARK   94  A    between atoms: _210  and  _213
REMARK   95  A    between atoms: _213  and  _214
REMARK   96  A    between atoms: _219  and  _221
REMARK   97  A    between atoms: _221  and  _222
REMARK   98  A    between atoms: _225  and  _227
REMARK   99  A    between atoms: _227  and  _228
REMARK  100  A    between atoms: _227  and  _230
REMARK  101  A    between atoms: _230  and  _231
REMARK  102  A    between atoms: _234  and  _236
REMARK  103  A    between atoms: _236  and  _237
REMARK  104  A    between atoms: _236  and  _239
REMARK  105  A    between atoms: _242  and  _244
REMARK  106  A    between atoms: _244  and  _245
REMARK  107  A    between atoms: _248  and  _249
REMARK  108  A    between atoms: _254  and  _256
REMARK  109  A    between atoms: _256  and  _257
REMARK  110  A    between atoms: _256  and  _259
REMARK  111  A    between atoms: _259  and  _260
REMARK  112  A    between atoms: _262  and  _264
REMARK  113  A    between atoms: _264  and  _265
REMARK  114  A    between atoms: _264  and  _267
REMARK  115  A    between atoms: _267  and  _268
REMARK  116  A    between atoms: _271  and  _273
REMARK  117  A    between atoms: _273  and  _274
REMARK  118  A    between atoms: _273  and  _276
REMARK  119  A    between atoms: _276  and  _277
REMARK  120  A    between atoms: _277  and  _278
REMARK  121  A    between atoms: _278  and  _279
REMARK  122  A    between atoms: _288  and  _290
REMARK  123  A    between atoms: _290  and  _291
REMARK  124  A    between atoms: _290  and  _293
REMARK  125  A    between atoms: _293  and  _294
REMARK  126  A    between atoms: _297  and  _299
REMARK  127  A    between atoms: _299  and  _300
REMARK  128  A    between atoms: _299  and  _302
REMARK  129  A    between atoms: _302  and  _303
REMARK  130  A    between atoms: _306  and  _307
REMARK  131  A    between atoms: _312  and  _314
REMARK  132  A    between atoms: _314  and  _315
REMARK  133  A    between atoms: _317  and  _319
REMARK  134  A    between atoms: _319  and  _320
REMARK  135  A    between atoms: _319  and  _322
REMARK  136  A    between atoms: _325  and  _327
REMARK  137  A    between atoms: _327  and  _328
REMARK  138  A    between atoms: _330  and  _332
REMARK  139  A    between atoms: _332  and  _333
REMARK  140  A    between atoms: _336  and  _338
REMARK  141  A    between atoms: _338  and  _339
REMARK  142  A    between atoms: _338  and  _341
REMARK  143  A    between atoms: _341  and  _342
REMARK  144  A    between atoms: _342  and  _343
REMARK  145  A    between atoms: _348  and  _350
REMARK  146  A    between atoms: _350  and  _351
REMARK  147  A    between atoms: _353  and  _355
REMARK  148  A    between atoms: _355  and  _356
REMARK  149  A    between atoms: _358  and  _360
REMARK  150  A    between atoms: _360  and  _361
REMARK  151  A    between atoms: _360  and  _363
REMARK  152  A    between atoms: _363  and  _364
REMARK  153  A    between atoms: _367  and  _369
REMARK  154  A    between atoms: _369  and  _370
REMARK  155  A    between atoms: _369  and  _372
REMARK  156  A    between atoms: _375  and  _377
REMARK  157  A    between atoms: _377  and  _378
REMARK  158  A    between atoms: _380  and  _382
REMARK  159  A    between atoms: _382  and  _383
REMARK  160  A    between atoms: _382  and  _385
REMARK  161  A    between atoms: _385  and  _386
REMARK  162  A    between atoms: _386  and  _387
REMARK  163  A    between atoms: _387  and  _388
REMARK  164  A    between atoms: _397  and  _399
REMARK  165  A    between atoms: _399  and  _400
REMARK  166  A    between atoms: _399  and  _402
REMARK  167  A    between atoms: _402  and  _403
REMARK  168  A    between atoms: _405  and  _407
REMARK  169  A    between atoms: _407  and  _408
REMARK  170  A    between atoms: _407  and  _410
REMARK  171  A    between atoms: _410  and  _411
REMARK  172  A    between atoms: _414  and  _416
REMARK  173  A    between atoms: _416  and  _417
REMARK  174  A    between atoms: _416  and  _419
REMARK  175  A    between atoms: _419  and  _420
REMARK  176  A    between atoms: _425  and  _426
REMARK  177  A    between atoms: _428  and  _430
REMARK  178  A    between atoms: _430  and  _431
REMARK  179  A    between atoms: _430  and  _433
REMARK  180  A    between atoms: _433  and  _434
REMARK  181  A    between atoms: _437  and  _439
REMARK  182  A    between atoms: _439  and  _440
REMARK  183  A    between atoms: _443  and  _445
REMARK  184  A    between atoms: _445  and  _446
REMARK  185  A    between atoms: _445  and  _448
REMARK  186  A    between atoms: _448  and  _449
REMARK  187  A    between atoms: _452  and  _454
REMARK  188  A    between atoms: _454  and  _455
REMARK  189  A    between atoms: _454  and  _457
REMARK  190  A    between atoms: _457  and  _458
REMARK  191  A    between atoms: _462  and  _463
REMARK  192  A    between atoms: _468  and  _470
REMARK  193  A    between atoms: _470  and  _471
REMARK  194  A    between atoms: _470  and  _473
REMARK  195  A    between atoms: _473  and  _474
REMARK  196  A    between atoms: _474  and  _475
REMARK  197  A    between atoms: _478  and  _480
REMARK  198  A    between atoms: _480  and  _481
REMARK  199  A    between atoms: _480  and  _483
REMARK  200  A    between atoms: _483  and  _484
REMARK  201  A    between atoms: _487  and  _489
REMARK  202  A    between atoms: _489  and  _490
REMARK  203  A    between atoms: _489  and  _492
REMARK  204  A    between atoms: _492  and  _493
REMARK  205  A    between atoms: _498  and  _500
REMARK  206  A    between atoms: _500  and  _501
REMARK  207  A    between atoms: _500  and  _503
REMARK  208  A    between atoms: _503  and  _504
REMARK  209  A    between atoms: _504  and  _505
REMARK  210  A    between atoms: _505  and  _506
REMARK  211  A    between atoms: _506  and  _507
REMARK  212  A    between atoms: _511  and  _513
REMARK  213  A    between atoms: _513  and  _514
REMARK  214  A    between atoms: _513  and  _516
REMARK  215  A    between atoms: _516  and  _517
REMARK                            x       y       z     vdW  Elec       q    Type
REMARK                         _______ _______ _______ _____ _____    ______ ____
ROOT
ATOM      1  O   HOH     1      12.965  38.166  43.927  0.00  0.00    +0.000 OA
ENDROOT
TORSDOF 0
