REMARK  Name = ../refined-set-2016/3ppm/3ppm_pocket.pdb
REMARK  234 active torsions:
REMARK  status: ('A' for Active; 'I' for Inactive)
REMARK    1  A    between atoms: _1  and  _3
REMARK    2  A    between atoms: _3  and  _4
REMARK    3  A    between atoms: _3  and  _6
REMARK    4  A    between atoms: _6  and  _7
REMARK    5  A    between atoms: _7  and  _8
REMARK    6  A    between atoms: _8  and  _9
REMARK    7  A    between atoms: _9  and  _10
REMARK    8  A    between atoms: _14  and  _16
REMARK    9  A    between atoms: _16  and  _17
REMARK   10  A    between atoms: _16  and  _19
REMARK   11  A    between atoms: _19  and  _20
REMARK   12  A    between atoms: _20  and  _21
REMARK   13  A    between atoms: _24  and  _26
REMARK   14  A    between atoms: _26  and  _27
REMARK   15  A    between atoms: _26  and  _29
REMARK   16  A    between atoms: _31  and  _33
REMARK   17  A    between atoms: _33  and  _34
REMARK   18  A    between atoms: _33  and  _36
REMARK   19  A    between atoms: _36  and  _37
REMARK   20  A    between atoms: _43  and  _45
REMARK   21  A    between atoms: _45  and  _46
REMARK   22  A    between atoms: _45  and  _48
REMARK   23  A    between atoms: _48  and  _49
REMARK   24  A    between atoms: _52  and  _54
REMARK   25  A    between atoms: _54  and  _55
REMARK   26  A    between atoms: _54  and  _57
REMARK   27  A    between atoms: _61  and  _62
REMARK   28  A    between atoms: _67  and  _69
REMARK   29  A    between atoms: _69  and  _70
REMARK   30  A    between atoms: _69  and  _72
REMARK   31  A    between atoms: _72  and  _73
REMARK   32  A    between atoms: _75  and  _77
REMARK   33  A    between atoms: _77  and  _78
REMARK   34  A    between atoms: _77  and  _80
REMARK   35  A    between atoms: _80  and  _81
REMARK   36  A    between atoms: _81  and  _82
REMARK   37  A    between atoms: _84  and  _86
REMARK   38  A    between atoms: _86  and  _87
REMARK   39  A    between atoms: _86  and  _89
REMARK   40  A    between atoms: _89  and  _90
REMARK   41  A    between atoms: _96  and  _98
REMARK   42  A    between atoms: _98  and  _99
REMARK   43  A    between atoms: _98  and  _101
REMARK   44  A    between atoms: _101  and  _102
REMARK   45  A    between atoms: _104  and  _106
REMARK   46  A    between atoms: _106  and  _107
REMARK   47  A    between atoms: _106  and  _109
REMARK   48  A    between atoms: _109  and  _110
REMARK   49  A    between atoms: _115  and  _116
REMARK   50  A    between atoms: _118  and  _120
REMARK   51  A    between atoms: _120  and  _121
REMARK   52  A    between atoms: _120  and  _123
REMARK   53  A    between atoms: _123  and  _124
REMARK   54  A    between atoms: _127  and  _129
REMARK   55  A    between atoms: _129  and  _130
REMARK   56  A    between atoms: _132  and  _134
REMARK   57  A    between atoms: _134  and  _135
REMARK   58  A    between atoms: _134  and  _137
REMARK   59  A    between atoms: _137  and  _138
REMARK   60  A    between atoms: _140  and  _142
REMARK   61  A    between atoms: _142  and  _143
REMARK   62  A    between atoms: _142  and  _145
REMARK   63  A    between atoms: _145  and  _146
REMARK   64  A    between atoms: _148  and  _150
REMARK   65  A    between atoms: _150  and  _151
REMARK   66  A    between atoms: _153  and  _155
REMARK   67  A    between atoms: _155  and  _156
REMARK   68  A    between atoms: _155  and  _158
REMARK   69  A    between atoms: _158  and  _159
REMARK   70  A    between atoms: _162  and  _164
REMARK   71  A    between atoms: _164  and  _165
REMARK   72  A    between atoms: _164  and  _167
REMARK   73  A    between atoms: _167  and  _168
REMARK   74  A    between atoms: _171  and  _173
REMARK   75  A    between atoms: _173  and  _174
REMARK   76  A    between atoms: _173  and  _176
REMARK   77  A    between atoms: _176  and  _177
REMARK   78  A    between atoms: _180  and  _182
REMARK   79  A    between atoms: _182  and  _183
REMARK   80  A    between atoms: _185  and  _187
REMARK   81  A    between atoms: _187  and  _188
REMARK   82  A    between atoms: _190  and  _192
REMARK   83  A    between atoms: _192  and  _193
REMARK   84  A    between atoms: _192  and  _195
REMARK   85  A    between atoms: _195  and  _196
REMARK   86  A    between atoms: _198  and  _200
REMARK   87  A    between atoms: _200  and  _201
REMARK   88  A    between atoms: _200  and  _203
REMARK   89  A    between atoms: _203  and  _204
REMARK   90  A    between atoms: _207  and  _209
REMARK   91  A    between atoms: _209  and  _210
REMARK   92  A    between atoms: _209  and  _212
REMARK   93  A    between atoms: _212  and  _213
REMARK   94  A    between atoms: _213  and  _214
REMARK   95  A    between atoms: _214  and  _215
REMARK   96  A    between atoms: _224  and  _226
REMARK   97  A    between atoms: _226  and  _227
REMARK   98  A    between atoms: _226  and  _229
REMARK   99  A    between atoms: _229  and  _230
REMARK  100  A    between atoms: _236  and  _238
REMARK  101  A    between atoms: _238  and  _239
REMARK  102  A    between atoms: _238  and  _241
REMARK  103  A    between atoms: _241  and  _242
REMARK  104  A    between atoms: _242  and  _243
REMARK  105  A    between atoms: _243  and  _244
REMARK  106  A    between atoms: _244  and  _245
REMARK  107  A    between atoms: _249  and  _251
REMARK  108  A    between atoms: _251  and  _252
REMARK  109  A    between atoms: _254  and  _256
REMARK  110  A    between atoms: _256  and  _257
REMARK  111  A    between atoms: _256  and  _259
REMARK  112  A    between atoms: _259  and  _260
REMARK  113  A    between atoms: _263  and  _265
REMARK  114  A    between atoms: _265  and  _266
REMARK  115  A    between atoms: _265  and  _268
REMARK  116  A    between atoms: _268  and  _269
REMARK  117  A    between atoms: _269  and  _270
REMARK  118  A    between atoms: _270  and  _271
REMARK  119  A    between atoms: _271  and  _272
REMARK  120  A    between atoms: _276  and  _278
REMARK  121  A    between atoms: _278  and  _279
REMARK  122  A    between atoms: _281  and  _283
REMARK  123  A    between atoms: _283  and  _284
REMARK  124  A    between atoms: _283  and  _286
REMARK  125  A    between atoms: _288  and  _290
REMARK  126  A    between atoms: _290  and  _291
REMARK  127  A    between atoms: _290  and  _293
REMARK  128  A    between atoms: _296  and  _298
REMARK  129  A    between atoms: _298  and  _299
REMARK  130  A    between atoms: _298  and  _301
REMARK  131  A    between atoms: _301  and  _302
REMARK  132  A    between atoms: _307  and  _308
REMARK  133  A    between atoms: _310  and  _312
REMARK  134  A    between atoms: _312  and  _313
REMARK  135  A    between atoms: _312  and  _315
REMARK  136  A    between atoms: _315  and  _316
REMARK  137  A    between atoms: _316  and  _317
REMARK  138  A    between atoms: _322  and  _324
REMARK  139  A    between atoms: _324  and  _325
REMARK  140  A    between atoms: _324  and  _327
REMARK  141  A    between atoms: _327  and  _328
REMARK  142  A    between atoms: _331  and  _333
REMARK  143  A    between atoms: _333  and  _334
REMARK  144  A    between atoms: _333  and  _336
REMARK  145  A    between atoms: _336  and  _337
REMARK  146  A    between atoms: _339  and  _341
REMARK  147  A    between atoms: _341  and  _342
REMARK  148  A    between atoms: _341  and  _344
REMARK  149  A    between atoms: _344  and  _345
REMARK  150  A    between atoms: _348  and  _350
REMARK  151  A    between atoms: _350  and  _351
REMARK  152  A    between atoms: _350  and  _353
REMARK  153  A    between atoms: _353  and  _354
REMARK  154  A    between atoms: _357  and  _359
REMARK  155  A    between atoms: _359  and  _360
REMARK  156  A    between atoms: _359  and  _362
REMARK  157  A    between atoms: _362  and  _363
REMARK  158  A    between atoms: _363  and  _364
REMARK  159  A    between atoms: _367  and  _369
REMARK  160  A    between atoms: _369  and  _370
REMARK  161  A    between atoms: _369  and  _372
REMARK  162  A    between atoms: _372  and  _373
REMARK  163  A    between atoms: _375  and  _377
REMARK  164  A    between atoms: _377  and  _378
REMARK  165  A    between atoms: _377  and  _380
REMARK  166  A    between atoms: _380  and  _381
REMARK  167  A    between atoms: _384  and  _386
REMARK  168  A    between atoms: _386  and  _387
REMARK  169  A    between atoms: _389  and  _391
REMARK  170  A    between atoms: _391  and  _392
REMARK  171  A    between atoms: _391  and  _394
REMARK  172  A    between atoms: _394  and  _395
REMARK  173  A    between atoms: _398  and  _400
REMARK  174  A    between atoms: _400  and  _401
REMARK  175  A    between atoms: _400  and  _403
REMARK  176  A    between atoms: _403  and  _404
REMARK  177  A    between atoms: _410  and  _412
REMARK  178  A    between atoms: _412  and  _413
REMARK  179  A    between atoms: _412  and  _415
REMARK  180  A    between atoms: _415  and  _416
REMARK  181  A    between atoms: _422  and  _424
REMARK  182  A    between atoms: _424  and  _425
REMARK  183  A    between atoms: _424  and  _427
REMARK  184  A    between atoms: _427  and  _428
REMARK  185  A    between atoms: _431  and  _433
REMARK  186  A    between atoms: _433  and  _434
REMARK  187  A    between atoms: _433  and  _436
REMARK  188  A    between atoms: _436  and  _437
REMARK  189  A    between atoms: _440  and  _442
REMARK  190  A    between atoms: _442  and  _443
REMARK  191  A    between atoms: _442  and  _445
REMARK  192  A    between atoms: _445  and  _446
REMARK  193  A    between atoms: _452  and  _454
REMARK  194  A    between atoms: _454  and  _455
REMARK  195  A    between atoms: _454  and  _457
REMARK  196  A    between atoms: _457  and  _458
REMARK  197  A    between atoms: _463  and  _465
REMARK  198  A    between atoms: _465  and  _466
REMARK  199  A    between atoms: _465  and  _468
REMARK  200  A    between atoms: _468  and  _469
REMARK  201  A    between atoms: _469  and  _470
REMARK  202  A    between atoms: _473  and  _474
REMARK  203  A    between atoms: _479  and  _481
REMARK  204  A    between atoms: _481  and  _482
REMARK  205  A    between atoms: _484  and  _486
REMARK  206  A    between atoms: _486  and  _487
REMARK  207  A    between atoms: _490  and  _492
REMARK  208  A    between atoms: _492  and  _493
REMARK  209  A    between atoms: _492  and  _495
REMARK  210  A    between atoms: _495  and  _496
REMARK  211  A    between atoms: _499  and  _501
REMARK  212  A    between atoms: _501  and  _502
REMARK  213  A    between atoms: _504  and  _506
REMARK  214  A    between atoms: _506  and  _507
REMARK  215  A    between atoms: _510  and  _512
REMARK  216  A    between atoms: _512  and  _513
REMARK  217  A    between atoms: _512  and  _515
REMARK  218  A    between atoms: _518  and  _520
REMARK  219  A    between atoms: _520  and  _521
REMARK  220  A    between atoms: _520  and  _523
REMARK  221  A    between atoms: _523  and  _524
REMARK  222  A    between atoms: _527  and  _529
REMARK  223  A    between atoms: _529  and  _530
REMARK  224  A    between atoms: _529  and  _532
REMARK  225  A    between atoms: _532  and  _533
REMARK  226  A    between atoms: _533  and  _534
REMARK  227  A    between atoms: _536  and  _538
REMARK  228  A    between atoms: _538  and  _539
REMARK  229  A    between atoms: _538  and  _541
REMARK  230  A    between atoms: _541  and  _542
REMARK  231  A    between atoms: _547  and  _549
REMARK  232  A    between atoms: _549  and  _550
REMARK  233  A    between atoms: _549  and  _552
REMARK  234  A    between atoms: _552  and  _553
REMARK                            x       y       z     vdW  Elec       q    Type
REMARK                         _______ _______ _______ _____ _____    ______ ____
ROOT
ATOM      1  CA  GLU A   2      28.054 -36.699   0.091  0.00  0.00    +0.149 C 
ENDROOT
BRANCH   1   4
ATOM      2  C   LYS A   1      29.028 -34.746   1.144  0.00  0.00    +0.238 C 
ATOM      3  O   LYS A   1      28.009 -34.560   1.803  0.00  0.00    -0.274 OA
ATOM      4  N   GLU A   2      29.173 -35.800   0.347  0.00  0.00    -0.297 N 
ATOM      5  H   GLU A   2      30.094 -35.985  -0.099  0.00  0.00    +0.150 HD
BRANCH   2   6
ATOM      6  CA  LYS A   1      30.189 -33.745   1.198  0.00  0.00    +0.145 C 
BRANCH   6   7
ATOM      7  N   LYS A   1      29.626 -32.407   1.346  0.00  0.00    -0.238 NA
ATOM      8  H   LYS A   1      29.972 -31.786   2.105  0.00  0.00    +0.142 HD
ENDBRANCH   6   7
BRANCH   6   9
ATOM      9  CB  LYS A   1      31.107 -34.056   2.383  0.00  0.00    +0.026 C 
BRANCH   9  10
ATOM     10  CG  LYS A   1      31.949 -35.311   2.229  0.00  0.00    -0.000 C 
BRANCH  10  11
ATOM     11  CD  LYS A   1      32.987 -35.374   3.356  0.00  0.00    -0.024 C 
BRANCH  11  12
ATOM     12  CE  LYS A   1      33.812 -36.654   3.308  0.00  0.00    -0.086 C 
BRANCH  12  13
ATOM     13  NZ  LYS A   1      34.879 -36.606   4.388  0.00  0.00    +0.380 N 
ATOM     14  HZ1 LYS A   1      34.424 -36.519   5.319  0.00  0.00    -0.089 HD
ATOM     15  HZ2 LYS A   1      35.443 -37.479   4.356  0.00  0.00    -0.089 HD
ATOM     16  HZ3 LYS A   1      35.498 -35.786   4.226  0.00  0.00    -0.089 HD
ENDBRANCH  12  13
ENDBRANCH  11  12
ENDBRANCH  10  11
ENDBRANCH   9  10
ENDBRANCH   6   9
ENDBRANCH   2   6
ENDBRANCH   1   4
BRANCH   1  17
ATOM     17  C   GLU A   2      27.487 -37.357   1.352  0.00  0.00    +0.241 C 
ATOM     18  N   CYS A   3      28.288 -37.431   2.412  0.00  0.00    -0.296 N 
ATOM     19  H   CYS A   3      29.248 -37.035   2.360  0.00  0.00    +0.150 HD
ATOM     20  O   GLU A   2      26.336 -37.789   1.364  0.00  0.00    -0.273 OA
BRANCH  18  21
ATOM     21  CA  CYS A   3      27.834 -38.063   3.649  0.00  0.00    +0.160 C 
BRANCH  21  22
ATOM     22  C   CYS A   3      26.854 -37.236   4.487  0.00  0.00    +0.242 C 
ATOM     23  O   CYS A   3      26.265 -37.757   5.435  0.00  0.00    -0.273 OA
ATOM     24  N   PHE A   4      26.691 -35.957   4.165  0.00  0.00    -0.298 N 
ATOM     25  H   PHE A   4      27.281 -35.531   3.422  0.00  0.00    +0.150 HD
BRANCH  24  26
ATOM     26  CA  PHE A   4      25.687 -35.147   4.851  0.00  0.00    +0.141 C 
BRANCH  26  27
ATOM     27  C   PHE A   4      24.297 -35.484   4.324  0.00  0.00    +0.227 C 
ATOM     28  O   PHE A   4      23.936 -35.096   3.224  0.00  0.00    -0.286 OA
ENDBRANCH  26  27
BRANCH  26  29
ATOM     29  CB  PHE A   4      25.985 -33.658   4.685  0.00  0.00    +0.054 C 
BRANCH  29  30
ATOM     30  CG  PHE A   4      27.201 -33.209   5.451  0.00  0.00    -0.020 A 
ATOM     31  CD2 PHE A   4      27.106 -32.893   6.797  0.00  0.00    -0.004 A 
ATOM     32  CE2 PHE A   4      28.222 -32.499   7.521  0.00  0.00    -0.000 A 
ATOM     33  CZ  PHE A   4      29.456 -32.428   6.905  0.00  0.00    -0.000 A 
ATOM     34  CE1 PHE A   4      29.567 -32.755   5.564  0.00  0.00    -0.000 A 
ATOM     35  CD1 PHE A   4      28.440 -33.146   4.840  0.00  0.00    -0.004 A 
ENDBRANCH  29  30
ENDBRANCH  26  29
ENDBRANCH  24  26
ENDBRANCH  21  22
BRANCH  21  36
ATOM     36  CB  CYS A   3      29.027 -38.458   4.513  0.00  0.00    +0.098 C 
ATOM     37  SG  CYS A   3      30.076 -37.057   4.976  0.00  0.00    -0.080 S 
ENDBRANCH  21  36
ENDBRANCH  18  21
ENDBRANCH   1  17
BRANCH   1  38
ATOM     38  CB  GLU A   2      28.456 -37.778  -0.921  0.00  0.00    +0.041 C 
BRANCH  38  39
ATOM     39  CG  GLU A   2      27.257 -38.378  -1.658  0.00  0.00    +0.116 C 
BRANCH  39  40
ATOM     40  CD  GLU A   2      27.406 -39.867  -1.893  0.00  0.00    +0.365 C 
ATOM     41  OE2 GLU A   2      28.295 -40.487  -1.265  0.00  0.00    -0.246 OA
ATOM     42  OE1 GLU A   2      26.620 -40.418  -2.692  0.00  0.00    -0.246 OA
ENDBRANCH  39  40
ENDBRANCH  38  39
ENDBRANCH   1  38
TORSDOF 19
REMARK  Name = ../refined-set-2016/3ppm/3ppm_pocket.pdb
REMARK  234 active torsions:
REMARK  status: ('A' for Active; 'I' for Inactive)
REMARK    1  A    between atoms: _1  and  _3
REMARK    2  A    between atoms: _3  and  _4
REMARK    3  A    between atoms: _3  and  _6
REMARK    4  A    between atoms: _6  and  _7
REMARK    5  A    between atoms: _7  and  _8
REMARK    6  A    between atoms: _8  and  _9
REMARK    7  A    between atoms: _9  and  _10
REMARK    8  A    between atoms: _14  and  _16
REMARK    9  A    between atoms: _16  and  _17
REMARK   10  A    between atoms: _16  and  _19
REMARK   11  A    between atoms: _19  and  _20
REMARK   12  A    between atoms: _20  and  _21
REMARK   13  A    between atoms: _24  and  _26
REMARK   14  A    between atoms: _26  and  _27
REMARK   15  A    between atoms: _26  and  _29
REMARK   16  A    between atoms: _31  and  _33
REMARK   17  A    between atoms: _33  and  _34
REMARK   18  A    between atoms: _33  and  _36
REMARK   19  A    between atoms: _36  and  _37
REMARK   20  A    between atoms: _43  and  _45
REMARK   21  A    between atoms: _45  and  _46
REMARK   22  A    between atoms: _45  and  _48
REMARK   23  A    between atoms: _48  and  _49
REMARK   24  A    between atoms: _52  and  _54
REMARK   25  A    between atoms: _54  and  _55
REMARK   26  A    between atoms: _54  and  _57
REMARK   27  A    between atoms: _61  and  _62
REMARK   28  A    between atoms: _67  and  _69
REMARK   29  A    between atoms: _69  and  _70
REMARK   30  A    between atoms: _69  and  _72
REMARK   31  A    between atoms: _72  and  _73
REMARK   32  A    between atoms: _75  and  _77
REMARK   33  A    between atoms: _77  and  _78
REMARK   34  A    between atoms: _77  and  _80
REMARK   35  A    between atoms: _80  and  _81
REMARK   36  A    between atoms: _81  and  _82
REMARK   37  A    between atoms: _84  and  _86
REMARK   38  A    between atoms: _86  and  _87
REMARK   39  A    between atoms: _86  and  _89
REMARK   40  A    between atoms: _89  and  _90
REMARK   41  A    between atoms: _96  and  _98
REMARK   42  A    between atoms: _98  and  _99
REMARK   43  A    between atoms: _98  and  _101
REMARK   44  A    between atoms: _101  and  _102
REMARK   45  A    between atoms: _104  and  _106
REMARK   46  A    between atoms: _106  and  _107
REMARK   47  A    between atoms: _106  and  _109
REMARK   48  A    between atoms: _109  and  _110
REMARK   49  A    between atoms: _115  and  _116
REMARK   50  A    between atoms: _118  and  _120
REMARK   51  A    between atoms: _120  and  _121
REMARK   52  A    between atoms: _120  and  _123
REMARK   53  A    between atoms: _123  and  _124
REMARK   54  A    between atoms: _127  and  _129
REMARK   55  A    between atoms: _129  and  _130
REMARK   56  A    between atoms: _132  and  _134
REMARK   57  A    between atoms: _134  and  _135
REMARK   58  A    between atoms: _134  and  _137
REMARK   59  A    between atoms: _137  and  _138
REMARK   60  A    between atoms: _140  and  _142
REMARK   61  A    between atoms: _142  and  _143
REMARK   62  A    between atoms: _142  and  _145
REMARK   63  A    between atoms: _145  and  _146
REMARK   64  A    between atoms: _148  and  _150
REMARK   65  A    between atoms: _150  and  _151
REMARK   66  A    between atoms: _153  and  _155
REMARK   67  A    between atoms: _155  and  _156
REMARK   68  A    between atoms: _155  and  _158
REMARK   69  A    between atoms: _158  and  _159
REMARK   70  A    between atoms: _162  and  _164
REMARK   71  A    between atoms: _164  and  _165
REMARK   72  A    between atoms: _164  and  _167
REMARK   73  A    between atoms: _167  and  _168
REMARK   74  A    between atoms: _171  and  _173
REMARK   75  A    between atoms: _173  and  _174
REMARK   76  A    between atoms: _173  and  _176
REMARK   77  A    between atoms: _176  and  _177
REMARK   78  A    between atoms: _180  and  _182
REMARK   79  A    between atoms: _182  and  _183
REMARK   80  A    between atoms: _185  and  _187
REMARK   81  A    between atoms: _187  and  _188
REMARK   82  A    between atoms: _190  and  _192
REMARK   83  A    between atoms: _192  and  _193
REMARK   84  A    between atoms: _192  and  _195
REMARK   85  A    between atoms: _195  and  _196
REMARK   86  A    between atoms: _198  and  _200
REMARK   87  A    between atoms: _200  and  _201
REMARK   88  A    between atoms: _200  and  _203
REMARK   89  A    between atoms: _203  and  _204
REMARK   90  A    between atoms: _207  and  _209
REMARK   91  A    between atoms: _209  and  _210
REMARK   92  A    between atoms: _209  and  _212
REMARK   93  A    between atoms: _212  and  _213
REMARK   94  A    between atoms: _213  and  _214
REMARK   95  A    between atoms: _214  and  _215
REMARK   96  A    between atoms: _224  and  _226
REMARK   97  A    between atoms: _226  and  _227
REMARK   98  A    between atoms: _226  and  _229
REMARK   99  A    between atoms: _229  and  _230
REMARK  100  A    between atoms: _236  and  _238
REMARK  101  A    between atoms: _238  and  _239
REMARK  102  A    between atoms: _238  and  _241
REMARK  103  A    between atoms: _241  and  _242
REMARK  104  A    between atoms: _242  and  _243
REMARK  105  A    between atoms: _243  and  _244
REMARK  106  A    between atoms: _244  and  _245
REMARK  107  A    between atoms: _249  and  _251
REMARK  108  A    between atoms: _251  and  _252
REMARK  109  A    between atoms: _254  and  _256
REMARK  110  A    between atoms: _256  and  _257
REMARK  111  A    between atoms: _256  and  _259
REMARK  112  A    between atoms: _259  and  _260
REMARK  113  A    between atoms: _263  and  _265
REMARK  114  A    between atoms: _265  and  _266
REMARK  115  A    between atoms: _265  and  _268
REMARK  116  A    between atoms: _268  and  _269
REMARK  117  A    between atoms: _269  and  _270
REMARK  118  A    between atoms: _270  and  _271
REMARK  119  A    between atoms: _271  and  _272
REMARK  120  A    between atoms: _276  and  _278
REMARK  121  A    between atoms: _278  and  _279
REMARK  122  A    between atoms: _281  and  _283
REMARK  123  A    between atoms: _283  and  _284
REMARK  124  A    between atoms: _283  and  _286
REMARK  125  A    between atoms: _288  and  _290
REMARK  126  A    between atoms: _290  and  _291
REMARK  127  A    between atoms: _290  and  _293
REMARK  128  A    between atoms: _296  and  _298
REMARK  129  A    between atoms: _298  and  _299
REMARK  130  A    between atoms: _298  and  _301
REMARK  131  A    between atoms: _301  and  _302
REMARK  132  A    between atoms: _307  and  _308
REMARK  133  A    between atoms: _310  and  _312
REMARK  134  A    between atoms: _312  and  _313
REMARK  135  A    between atoms: _312  and  _315
REMARK  136  A    between atoms: _315  and  _316
REMARK  137  A    between atoms: _316  and  _317
REMARK  138  A    between atoms: _322  and  _324
REMARK  139  A    between atoms: _324  and  _325
REMARK  140  A    between atoms: _324  and  _327
REMARK  141  A    between atoms: _327  and  _328
REMARK  142  A    between atoms: _331  and  _333
REMARK  143  A    between atoms: _333  and  _334
REMARK  144  A    between atoms: _333  and  _336
REMARK  145  A    between atoms: _336  and  _337
REMARK  146  A    between atoms: _339  and  _341
REMARK  147  A    between atoms: _341  and  _342
REMARK  148  A    between atoms: _341  and  _344
REMARK  149  A    between atoms: _344  and  _345
REMARK  150  A    between atoms: _348  and  _350
REMARK  151  A    between atoms: _350  and  _351
REMARK  152  A    between atoms: _350  and  _353
REMARK  153  A    between atoms: _353  and  _354
REMARK  154  A    between atoms: _357  and  _359
REMARK  155  A    between atoms: _359  and  _360
REMARK  156  A    between atoms: _359  and  _362
REMARK  157  A    between atoms: _362  and  _363
REMARK  158  A    between atoms: _363  and  _364
REMARK  159  A    between atoms: _367  and  _369
REMARK  160  A    between atoms: _369  and  _370
REMARK  161  A    between atoms: _369  and  _372
REMARK  162  A    between atoms: _372  and  _373
REMARK  163  A    between atoms: _375  and  _377
REMARK  164  A    between atoms: _377  and  _378
REMARK  165  A    between atoms: _377  and  _380
REMARK  166  A    between atoms: _380  and  _381
REMARK  167  A    between atoms: _384  and  _386
REMARK  168  A    between atoms: _386  and  _387
REMARK  169  A    between atoms: _389  and  _391
REMARK  170  A    between atoms: _391  and  _392
REMARK  171  A    between atoms: _391  and  _394
REMARK  172  A    between atoms: _394  and  _395
REMARK  173  A    between atoms: _398  and  _400
REMARK  174  A    between atoms: _400  and  _401
REMARK  175  A    between atoms: _400  and  _403
REMARK  176  A    between atoms: _403  and  _404
REMARK  177  A    between atoms: _410  and  _412
REMARK  178  A    between atoms: _412  and  _413
REMARK  179  A    between atoms: _412  and  _415
REMARK  180  A    between atoms: _415  and  _416
REMARK  181  A    between atoms: _422  and  _424
REMARK  182  A    between atoms: _424  and  _425
REMARK  183  A    between atoms: _424  and  _427
REMARK  184  A    between atoms: _427  and  _428
REMARK  185  A    between atoms: _431  and  _433
REMARK  186  A    between atoms: _433  and  _434
REMARK  187  A    between atoms: _433  and  _436
REMARK  188  A    between atoms: _436  and  _437
REMARK  189  A    between atoms: _440  and  _442
REMARK  190  A    between atoms: _442  and  _443
REMARK  191  A    between atoms: _442  and  _445
REMARK  192  A    between atoms: _445  and  _446
REMARK  193  A    between atoms: _452  and  _454
REMARK  194  A    between atoms: _454  and  _455
REMARK  195  A    between atoms: _454  and  _457
REMARK  196  A    between atoms: _457  and  _458
REMARK  197  A    between atoms: _463  and  _465
REMARK  198  A    between atoms: _465  and  _466
REMARK  199  A    between atoms: _465  and  _468
REMARK  200  A    between atoms: _468  and  _469
REMARK  201  A    between atoms: _469  and  _470
REMARK  202  A    between atoms: _473  and  _474
REMARK  203  A    between atoms: _479  and  _481
REMARK  204  A    between atoms: _481  and  _482
REMARK  205  A    between atoms: _484  and  _486
REMARK  206  A    between atoms: _486  and  _487
REMARK  207  A    between atoms: _490  and  _492
REMARK  208  A    between atoms: _492  and  _493
REMARK  209  A    between atoms: _492  and  _495
REMARK  210  A    between atoms: _495  and  _496
REMARK  211  A    between atoms: _499  and  _501
REMARK  212  A    between atoms: _501  and  _502
REMARK  213  A    between atoms: _504  and  _506
REMARK  214  A    between atoms: _506  and  _507
REMARK  215  A    between atoms: _510  and  _512
REMARK  216  A    between atoms: _512  and  _513
REMARK  217  A    between atoms: _512  and  _515
REMARK  218  A    between atoms: _518  and  _520
REMARK  219  A    between atoms: _520  and  _521
REMARK  220  A    between atoms: _520  and  _523
REMARK  221  A    between atoms: _523  and  _524
REMARK  222  A    between atoms: _527  and  _529
REMARK  223  A    between atoms: _529  and  _530
REMARK  224  A    between atoms: _529  and  _532
REMARK  225  A    between atoms: _532  and  _533
REMARK  226  A    between atoms: _533  and  _534
REMARK  227  A    between atoms: _536  and  _538
REMARK  228  A    between atoms: _538  and  _539
REMARK  229  A    between atoms: _538  and  _541
REMARK  230  A    between atoms: _541  and  _542
REMARK  231  A    between atoms: _547  and  _549
REMARK  232  A    between atoms: _549  and  _550
REMARK  233  A    between atoms: _549  and  _552
REMARK  234  A    between atoms: _552  and  _553
REMARK                            x       y       z     vdW  Elec       q    Type
REMARK                         _______ _______ _______ _____ _____    ______ ____
ROOT
ATOM      1  CA  LEU A   1      29.804 -43.176   0.137  0.00  0.00    +0.133 C 
ENDROOT
BRANCH   1   2
ATOM      2  N   LEU A   1      28.412 -43.003  -0.264  0.00  0.00    -0.239 NA
ATOM      3  H   LEU A   1      28.032 -42.041  -0.370  0.00  0.00    +0.142 HD
ENDBRANCH   1   2
BRANCH   1   4
ATOM      4  C   LEU A   1      30.569 -44.017  -0.894  0.00  0.00    +0.224 C 
ATOM      5  O   LEU A   1      31.594 -44.614  -0.574  0.00  0.00    -0.287 OA
ENDBRANCH   1   4
BRANCH   1   6
ATOM      6  CB  LEU A   1      29.905 -43.829   1.525  0.00  0.00    +0.025 C 
BRANCH   6   7
ATOM      7  CG  LEU A   1      28.961 -43.308   2.615  0.00  0.00    +0.002 C 
ATOM      8  CD2 LEU A   1      29.267 -43.965   3.959  0.00  0.00    +0.000 C 
ATOM      9  CD1 LEU A   1      29.070 -41.791   2.716  0.00  0.00    +0.000 C 
ENDBRANCH   6   7
ENDBRANCH   1   6
TORSDOF 4
REMARK  Name = ../refined-set-2016/3ppm/3ppm_pocket.pdb
REMARK  234 active torsions:
REMARK  status: ('A' for Active; 'I' for Inactive)
REMARK    1  A    between atoms: _1  and  _3
REMARK    2  A    between atoms: _3  and  _4
REMARK    3  A    between atoms: _3  and  _6
REMARK    4  A    between atoms: _6  and  _7
REMARK    5  A    between atoms: _7  and  _8
REMARK    6  A    between atoms: _8  and  _9
REMARK    7  A    between atoms: _9  and  _10
REMARK    8  A    between atoms: _14  and  _16
REMARK    9  A    between atoms: _16  and  _17
REMARK   10  A    between atoms: _16  and  _19
REMARK   11  A    between atoms: _19  and  _20
REMARK   12  A    between atoms: _20  and  _21
REMARK   13  A    between atoms: _24  and  _26
REMARK   14  A    between atoms: _26  and  _27
REMARK   15  A    between atoms: _26  and  _29
REMARK   16  A    between atoms: _31  and  _33
REMARK   17  A    between atoms: _33  and  _34
REMARK   18  A    between atoms: _33  and  _36
REMARK   19  A    between atoms: _36  and  _37
REMARK   20  A    between atoms: _43  and  _45
REMARK   21  A    between atoms: _45  and  _46
REMARK   22  A    between atoms: _45  and  _48
REMARK   23  A    between atoms: _48  and  _49
REMARK   24  A    between atoms: _52  and  _54
REMARK   25  A    between atoms: _54  and  _55
REMARK   26  A    between atoms: _54  and  _57
REMARK   27  A    between atoms: _61  and  _62
REMARK   28  A    between atoms: _67  and  _69
REMARK   29  A    between atoms: _69  and  _70
REMARK   30  A    between atoms: _69  and  _72
REMARK   31  A    between atoms: _72  and  _73
REMARK   32  A    between atoms: _75  and  _77
REMARK   33  A    between atoms: _77  and  _78
REMARK   34  A    between atoms: _77  and  _80
REMARK   35  A    between atoms: _80  and  _81
REMARK   36  A    between atoms: _81  and  _82
REMARK   37  A    between atoms: _84  and  _86
REMARK   38  A    between atoms: _86  and  _87
REMARK   39  A    between atoms: _86  and  _89
REMARK   40  A    between atoms: _89  and  _90
REMARK   41  A    between atoms: _96  and  _98
REMARK   42  A    between atoms: _98  and  _99
REMARK   43  A    between atoms: _98  and  _101
REMARK   44  A    between atoms: _101  and  _102
REMARK   45  A    between atoms: _104  and  _106
REMARK   46  A    between atoms: _106  and  _107
REMARK   47  A    between atoms: _106  and  _109
REMARK   48  A    between atoms: _109  and  _110
REMARK   49  A    between atoms: _115  and  _116
REMARK   50  A    between atoms: _118  and  _120
REMARK   51  A    between atoms: _120  and  _121
REMARK   52  A    between atoms: _120  and  _123
REMARK   53  A    between atoms: _123  and  _124
REMARK   54  A    between atoms: _127  and  _129
REMARK   55  A    between atoms: _129  and  _130
REMARK   56  A    between atoms: _132  and  _134
REMARK   57  A    between atoms: _134  and  _135
REMARK   58  A    between atoms: _134  and  _137
REMARK   59  A    between atoms: _137  and  _138
REMARK   60  A    between atoms: _140  and  _142
REMARK   61  A    between atoms: _142  and  _143
REMARK   62  A    between atoms: _142  and  _145
REMARK   63  A    between atoms: _145  and  _146
REMARK   64  A    between atoms: _148  and  _150
REMARK   65  A    between atoms: _150  and  _151
REMARK   66  A    between atoms: _153  and  _155
REMARK   67  A    between atoms: _155  and  _156
REMARK   68  A    between atoms: _155  and  _158
REMARK   69  A    between atoms: _158  and  _159
REMARK   70  A    between atoms: _162  and  _164
REMARK   71  A    between atoms: _164  and  _165
REMARK   72  A    between atoms: _164  and  _167
REMARK   73  A    between atoms: _167  and  _168
REMARK   74  A    between atoms: _171  and  _173
REMARK   75  A    between atoms: _173  and  _174
REMARK   76  A    between atoms: _173  and  _176
REMARK   77  A    between atoms: _176  and  _177
REMARK   78  A    between atoms: _180  and  _182
REMARK   79  A    between atoms: _182  and  _183
REMARK   80  A    between atoms: _185  and  _187
REMARK   81  A    between atoms: _187  and  _188
REMARK   82  A    between atoms: _190  and  _192
REMARK   83  A    between atoms: _192  and  _193
REMARK   84  A    between atoms: _192  and  _195
REMARK   85  A    between atoms: _195  and  _196
REMARK   86  A    between atoms: _198  and  _200
REMARK   87  A    between atoms: _200  and  _201
REMARK   88  A    between atoms: _200  and  _203
REMARK   89  A    between atoms: _203  and  _204
REMARK   90  A    between atoms: _207  and  _209
REMARK   91  A    between atoms: _209  and  _210
REMARK   92  A    between atoms: _209  and  _212
REMARK   93  A    between atoms: _212  and  _213
REMARK   94  A    between atoms: _213  and  _214
REMARK   95  A    between atoms: _214  and  _215
REMARK   96  A    between atoms: _224  and  _226
REMARK   97  A    between atoms: _226  and  _227
REMARK   98  A    between atoms: _226  and  _229
REMARK   99  A    between atoms: _229  and  _230
REMARK  100  A    between atoms: _236  and  _238
REMARK  101  A    between atoms: _238  and  _239
REMARK  102  A    between atoms: _238  and  _241
REMARK  103  A    between atoms: _241  and  _242
REMARK  104  A    between atoms: _242  and  _243
REMARK  105  A    between atoms: _243  and  _244
REMARK  106  A    between atoms: _244  and  _245
REMARK  107  A    between atoms: _249  and  _251
REMARK  108  A    between atoms: _251  and  _252
REMARK  109  A    between atoms: _254  and  _256
REMARK  110  A    between atoms: _256  and  _257
REMARK  111  A    between atoms: _256  and  _259
REMARK  112  A    between atoms: _259  and  _260
REMARK  113  A    between atoms: _263  and  _265
REMARK  114  A    between atoms: _265  and  _266
REMARK  115  A    between atoms: _265  and  _268
REMARK  116  A    between atoms: _268  and  _269
REMARK  117  A    between atoms: _269  and  _270
REMARK  118  A    between atoms: _270  and  _271
REMARK  119  A    between atoms: _271  and  _272
REMARK  120  A    between atoms: _276  and  _278
REMARK  121  A    between atoms: _278  and  _279
REMARK  122  A    between atoms: _281  and  _283
REMARK  123  A    between atoms: _283  and  _284
REMARK  124  A    between atoms: _283  and  _286
REMARK  125  A    between atoms: _288  and  _290
REMARK  126  A    between atoms: _290  and  _291
REMARK  127  A    between atoms: _290  and  _293
REMARK  128  A    between atoms: _296  and  _298
REMARK  129  A    between atoms: _298  and  _299
REMARK  130  A    between atoms: _298  and  _301
REMARK  131  A    between atoms: _301  and  _302
REMARK  132  A    between atoms: _307  and  _308
REMARK  133  A    between atoms: _310  and  _312
REMARK  134  A    between atoms: _312  and  _313
REMARK  135  A    between atoms: _312  and  _315
REMARK  136  A    between atoms: _315  and  _316
REMARK  137  A    between atoms: _316  and  _317
REMARK  138  A    between atoms: _322  and  _324
REMARK  139  A    between atoms: _324  and  _325
REMARK  140  A    between atoms: _324  and  _327
REMARK  141  A    between atoms: _327  and  _328
REMARK  142  A    between atoms: _331  and  _333
REMARK  143  A    between atoms: _333  and  _334
REMARK  144  A    between atoms: _333  and  _336
REMARK  145  A    between atoms: _336  and  _337
REMARK  146  A    between atoms: _339  and  _341
REMARK  147  A    between atoms: _341  and  _342
REMARK  148  A    between atoms: _341  and  _344
REMARK  149  A    between atoms: _344  and  _345
REMARK  150  A    between atoms: _348  and  _350
REMARK  151  A    between atoms: _350  and  _351
REMARK  152  A    between atoms: _350  and  _353
REMARK  153  A    between atoms: _353  and  _354
REMARK  154  A    between atoms: _357  and  _359
REMARK  155  A    between atoms: _359  and  _360
REMARK  156  A    between atoms: _359  and  _362
REMARK  157  A    between atoms: _362  and  _363
REMARK  158  A    between atoms: _363  and  _364
REMARK  159  A    between atoms: _367  and  _369
REMARK  160  A    between atoms: _369  and  _370
REMARK  161  A    between atoms: _369  and  _372
REMARK  162  A    between atoms: _372  and  _373
REMARK  163  A    between atoms: _375  and  _377
REMARK  164  A    between atoms: _377  and  _378
REMARK  165  A    between atoms: _377  and  _380
REMARK  166  A    between atoms: _380  and  _381
REMARK  167  A    between atoms: _384  and  _386
REMARK  168  A    between atoms: _386  and  _387
REMARK  169  A    between atoms: _389  and  _391
REMARK  170  A    between atoms: _391  and  _392
REMARK  171  A    between atoms: _391  and  _394
REMARK  172  A    between atoms: _394  and  _395
REMARK  173  A    between atoms: _398  and  _400
REMARK  174  A    between atoms: _400  and  _401
REMARK  175  A    between atoms: _400  and  _403
REMARK  176  A    between atoms: _403  and  _404
REMARK  177  A    between atoms: _410  and  _412
REMARK  178  A    between atoms: _412  and  _413
REMARK  179  A    between atoms: _412  and  _415
REMARK  180  A    between atoms: _415  and  _416
REMARK  181  A    between atoms: _422  and  _424
REMARK  182  A    between atoms: _424  and  _425
REMARK  183  A    between atoms: _424  and  _427
REMARK  184  A    between atoms: _427  and  _428
REMARK  185  A    between atoms: _431  and  _433
REMARK  186  A    between atoms: _433  and  _434
REMARK  187  A    between atoms: _433  and  _436
REMARK  188  A    between atoms: _436  and  _437
REMARK  189  A    between atoms: _440  and  _442
REMARK  190  A    between atoms: _442  and  _443
REMARK  191  A    between atoms: _442  and  _445
REMARK  192  A    between atoms: _445  and  _446
REMARK  193  A    between atoms: _452  and  _454
REMARK  194  A    between atoms: _454  and  _455
REMARK  195  A    between atoms: _454  and  _457
REMARK  196  A    between atoms: _457  and  _458
REMARK  197  A    between atoms: _463  and  _465
REMARK  198  A    between atoms: _465  and  _466
REMARK  199  A    between atoms: _465  and  _468
REMARK  200  A    between atoms: _468  and  _469
REMARK  201  A    between atoms: _469  and  _470
REMARK  202  A    between atoms: _473  and  _474
REMARK  203  A    between atoms: _479  and  _481
REMARK  204  A    between atoms: _481  and  _482
REMARK  205  A    between atoms: _484  and  _486
REMARK  206  A    between atoms: _486  and  _487
REMARK  207  A    between atoms: _490  and  _492
REMARK  208  A    between atoms: _492  and  _493
REMARK  209  A    between atoms: _492  and  _495
REMARK  210  A    between atoms: _495  and  _496
REMARK  211  A    between atoms: _499  and  _501
REMARK  212  A    between atoms: _501  and  _502
REMARK  213  A    between atoms: _504  and  _506
REMARK  214  A    between atoms: _506  and  _507
REMARK  215  A    between atoms: _510  and  _512
REMARK  216  A    between atoms: _512  and  _513
REMARK  217  A    between atoms: _512  and  _515
REMARK  218  A    between atoms: _518  and  _520
REMARK  219  A    between atoms: _520  and  _521
REMARK  220  A    between atoms: _520  and  _523
REMARK  221  A    between atoms: _523  and  _524
REMARK  222  A    between atoms: _527  and  _529
REMARK  223  A    between atoms: _529  and  _530
REMARK  224  A    between atoms: _529  and  _532
REMARK  225  A    between atoms: _532  and  _533
REMARK  226  A    between atoms: _533  and  _534
REMARK  227  A    between atoms: _536  and  _538
REMARK  228  A    between atoms: _538  and  _539
REMARK  229  A    between atoms: _538  and  _541
REMARK  230  A    between atoms: _541  and  _542
REMARK  231  A    between atoms: _547  and  _549
REMARK  232  A    between atoms: _549  and  _550
REMARK  233  A    between atoms: _549  and  _552
REMARK  234  A    between atoms: _552  and  _553
REMARK                            x       y       z     vdW  Elec       q    Type
REMARK                         _______ _______ _______ _____ _____    ______ ____
ROOT
ATOM      1  C   VAL A   1      34.900 -40.312  -2.221  0.00  0.00    +0.241 C 
ATOM      2  N   PRO A   2      36.078 -40.666  -1.685  0.00  0.00    -0.273 N 
ATOM      3  CD  PRO A   2      36.874 -39.939  -0.680  0.00  0.00    +0.094 C 
ATOM      4  CG  PRO A   2      37.748 -41.023  -0.084  0.00  0.00    +0.024 C 
ATOM      5  CB  PRO A   2      37.960 -42.007  -1.249  0.00  0.00    +0.030 C 
ATOM      6  CA  PRO A   2      36.615 -41.998  -1.980  0.00  0.00    +0.140 C 
ATOM      7  O   VAL A   1      34.330 -41.003  -3.064  0.00  0.00    -0.273 OA
ENDROOT
BRANCH   6   8
ATOM      8  C   PRO A   2      35.693 -43.050  -1.372  0.00  0.00    +0.227 C 
ATOM      9  O   PRO A   2      35.047 -42.801  -0.354  0.00  0.00    -0.286 OA
ENDBRANCH   6   8
BRANCH   1  10
ATOM     10  CA  VAL A   1      34.276 -38.999  -1.738  0.00  0.00    +0.145 C 
BRANCH  10  11
ATOM     11  CB  VAL A   1      33.503 -39.280  -0.420  0.00  0.00    +0.025 C 
ATOM     12  CG2 VAL A   1      32.796 -38.015   0.081  0.00  0.00    +0.002 C 
ATOM     13  CG1 VAL A   1      32.480 -40.410  -0.628  0.00  0.00    +0.002 C 
ENDBRANCH  10  11
BRANCH  10  14
ATOM     14  N   VAL A   1      33.384 -38.490  -2.774  0.00  0.00    -0.238 NA
ATOM     15  H   VAL A   1      32.771 -39.171  -3.266  0.00  0.00    +0.142 HD
ENDBRANCH  10  14
ENDBRANCH   1  10
TORSDOF 4
REMARK  Name = ../refined-set-2016/3ppm/3ppm_pocket.pdb
REMARK  234 active torsions:
REMARK  status: ('A' for Active; 'I' for Inactive)
REMARK    1  A    between atoms: _1  and  _3
REMARK    2  A    between atoms: _3  and  _4
REMARK    3  A    between atoms: _3  and  _6
REMARK    4  A    between atoms: _6  and  _7
REMARK    5  A    between atoms: _7  and  _8
REMARK    6  A    between atoms: _8  and  _9
REMARK    7  A    between atoms: _9  and  _10
REMARK    8  A    between atoms: _14  and  _16
REMARK    9  A    between atoms: _16  and  _17
REMARK   10  A    between atoms: _16  and  _19
REMARK   11  A    between atoms: _19  and  _20
REMARK   12  A    between atoms: _20  and  _21
REMARK   13  A    between atoms: _24  and  _26
REMARK   14  A    between atoms: _26  and  _27
REMARK   15  A    between atoms: _26  and  _29
REMARK   16  A    between atoms: _31  and  _33
REMARK   17  A    between atoms: _33  and  _34
REMARK   18  A    between atoms: _33  and  _36
REMARK   19  A    between atoms: _36  and  _37
REMARK   20  A    between atoms: _43  and  _45
REMARK   21  A    between atoms: _45  and  _46
REMARK   22  A    between atoms: _45  and  _48
REMARK   23  A    between atoms: _48  and  _49
REMARK   24  A    between atoms: _52  and  _54
REMARK   25  A    between atoms: _54  and  _55
REMARK   26  A    between atoms: _54  and  _57
REMARK   27  A    between atoms: _61  and  _62
REMARK   28  A    between atoms: _67  and  _69
REMARK   29  A    between atoms: _69  and  _70
REMARK   30  A    between atoms: _69  and  _72
REMARK   31  A    between atoms: _72  and  _73
REMARK   32  A    between atoms: _75  and  _77
REMARK   33  A    between atoms: _77  and  _78
REMARK   34  A    between atoms: _77  and  _80
REMARK   35  A    between atoms: _80  and  _81
REMARK   36  A    between atoms: _81  and  _82
REMARK   37  A    between atoms: _84  and  _86
REMARK   38  A    between atoms: _86  and  _87
REMARK   39  A    between atoms: _86  and  _89
REMARK   40  A    between atoms: _89  and  _90
REMARK   41  A    between atoms: _96  and  _98
REMARK   42  A    between atoms: _98  and  _99
REMARK   43  A    between atoms: _98  and  _101
REMARK   44  A    between atoms: _101  and  _102
REMARK   45  A    between atoms: _104  and  _106
REMARK   46  A    between atoms: _106  and  _107
REMARK   47  A    between atoms: _106  and  _109
REMARK   48  A    between atoms: _109  and  _110
REMARK   49  A    between atoms: _115  and  _116
REMARK   50  A    between atoms: _118  and  _120
REMARK   51  A    between atoms: _120  and  _121
REMARK   52  A    between atoms: _120  and  _123
REMARK   53  A    between atoms: _123  and  _124
REMARK   54  A    between atoms: _127  and  _129
REMARK   55  A    between atoms: _129  and  _130
REMARK   56  A    between atoms: _132  and  _134
REMARK   57  A    between atoms: _134  and  _135
REMARK   58  A    between atoms: _134  and  _137
REMARK   59  A    between atoms: _137  and  _138
REMARK   60  A    between atoms: _140  and  _142
REMARK   61  A    between atoms: _142  and  _143
REMARK   62  A    between atoms: _142  and  _145
REMARK   63  A    between atoms: _145  and  _146
REMARK   64  A    between atoms: _148  and  _150
REMARK   65  A    between atoms: _150  and  _151
REMARK   66  A    between atoms: _153  and  _155
REMARK   67  A    between atoms: _155  and  _156
REMARK   68  A    between atoms: _155  and  _158
REMARK   69  A    between atoms: _158  and  _159
REMARK   70  A    between atoms: _162  and  _164
REMARK   71  A    between atoms: _164  and  _165
REMARK   72  A    between atoms: _164  and  _167
REMARK   73  A    between atoms: _167  and  _168
REMARK   74  A    between atoms: _171  and  _173
REMARK   75  A    between atoms: _173  and  _174
REMARK   76  A    between atoms: _173  and  _176
REMARK   77  A    between atoms: _176  and  _177
REMARK   78  A    between atoms: _180  and  _182
REMARK   79  A    between atoms: _182  and  _183
REMARK   80  A    between atoms: _185  and  _187
REMARK   81  A    between atoms: _187  and  _188
REMARK   82  A    between atoms: _190  and  _192
REMARK   83  A    between atoms: _192  and  _193
REMARK   84  A    between atoms: _192  and  _195
REMARK   85  A    between atoms: _195  and  _196
REMARK   86  A    between atoms: _198  and  _200
REMARK   87  A    between atoms: _200  and  _201
REMARK   88  A    between atoms: _200  and  _203
REMARK   89  A    between atoms: _203  and  _204
REMARK   90  A    between atoms: _207  and  _209
REMARK   91  A    between atoms: _209  and  _210
REMARK   92  A    between atoms: _209  and  _212
REMARK   93  A    between atoms: _212  and  _213
REMARK   94  A    between atoms: _213  and  _214
REMARK   95  A    between atoms: _214  and  _215
REMARK   96  A    between atoms: _224  and  _226
REMARK   97  A    between atoms: _226  and  _227
REMARK   98  A    between atoms: _226  and  _229
REMARK   99  A    between atoms: _229  and  _230
REMARK  100  A    between atoms: _236  and  _238
REMARK  101  A    between atoms: _238  and  _239
REMARK  102  A    between atoms: _238  and  _241
REMARK  103  A    between atoms: _241  and  _242
REMARK  104  A    between atoms: _242  and  _243
REMARK  105  A    between atoms: _243  and  _244
REMARK  106  A    between atoms: _244  and  _245
REMARK  107  A    between atoms: _249  and  _251
REMARK  108  A    between atoms: _251  and  _252
REMARK  109  A    between atoms: _254  and  _256
REMARK  110  A    between atoms: _256  and  _257
REMARK  111  A    between atoms: _256  and  _259
REMARK  112  A    between atoms: _259  and  _260
REMARK  113  A    between atoms: _263  and  _265
REMARK  114  A    between atoms: _265  and  _266
REMARK  115  A    between atoms: _265  and  _268
REMARK  116  A    between atoms: _268  and  _269
REMARK  117  A    between atoms: _269  and  _270
REMARK  118  A    between atoms: _270  and  _271
REMARK  119  A    between atoms: _271  and  _272
REMARK  120  A    between atoms: _276  and  _278
REMARK  121  A    between atoms: _278  and  _279
REMARK  122  A    between atoms: _281  and  _283
REMARK  123  A    between atoms: _283  and  _284
REMARK  124  A    between atoms: _283  and  _286
REMARK  125  A    between atoms: _288  and  _290
REMARK  126  A    between atoms: _290  and  _291
REMARK  127  A    between atoms: _290  and  _293
REMARK  128  A    between atoms: _296  and  _298
REMARK  129  A    between atoms: _298  and  _299
REMARK  130  A    between atoms: _298  and  _301
REMARK  131  A    between atoms: _301  and  _302
REMARK  132  A    between atoms: _307  and  _308
REMARK  133  A    between atoms: _310  and  _312
REMARK  134  A    between atoms: _312  and  _313
REMARK  135  A    between atoms: _312  and  _315
REMARK  136  A    between atoms: _315  and  _316
REMARK  137  A    between atoms: _316  and  _317
REMARK  138  A    between atoms: _322  and  _324
REMARK  139  A    between atoms: _324  and  _325
REMARK  140  A    between atoms: _324  and  _327
REMARK  141  A    between atoms: _327  and  _328
REMARK  142  A    between atoms: _331  and  _333
REMARK  143  A    between atoms: _333  and  _334
REMARK  144  A    between atoms: _333  and  _336
REMARK  145  A    between atoms: _336  and  _337
REMARK  146  A    between atoms: _339  and  _341
REMARK  147  A    between atoms: _341  and  _342
REMARK  148  A    between atoms: _341  and  _344
REMARK  149  A    between atoms: _344  and  _345
REMARK  150  A    between atoms: _348  and  _350
REMARK  151  A    between atoms: _350  and  _351
REMARK  152  A    between atoms: _350  and  _353
REMARK  153  A    between atoms: _353  and  _354
REMARK  154  A    between atoms: _357  and  _359
REMARK  155  A    between atoms: _359  and  _360
REMARK  156  A    between atoms: _359  and  _362
REMARK  157  A    between atoms: _362  and  _363
REMARK  158  A    between atoms: _363  and  _364
REMARK  159  A    between atoms: _367  and  _369
REMARK  160  A    between atoms: _369  and  _370
REMARK  161  A    between atoms: _369  and  _372
REMARK  162  A    between atoms: _372  and  _373
REMARK  163  A    between atoms: _375  and  _377
REMARK  164  A    between atoms: _377  and  _378
REMARK  165  A    between atoms: _377  and  _380
REMARK  166  A    between atoms: _380  and  _381
REMARK  167  A    between atoms: _384  and  _386
REMARK  168  A    between atoms: _386  and  _387
REMARK  169  A    between atoms: _389  and  _391
REMARK  170  A    between atoms: _391  and  _392
REMARK  171  A    between atoms: _391  and  _394
REMARK  172  A    between atoms: _394  and  _395
REMARK  173  A    between atoms: _398  and  _400
REMARK  174  A    between atoms: _400  and  _401
REMARK  175  A    between atoms: _400  and  _403
REMARK  176  A    between atoms: _403  and  _404
REMARK  177  A    between atoms: _410  and  _412
REMARK  178  A    between atoms: _412  and  _413
REMARK  179  A    between atoms: _412  and  _415
REMARK  180  A    between atoms: _415  and  _416
REMARK  181  A    between atoms: _422  and  _424
REMARK  182  A    between atoms: _424  and  _425
REMARK  183  A    between atoms: _424  and  _427
REMARK  184  A    between atoms: _427  and  _428
REMARK  185  A    between atoms: _431  and  _433
REMARK  186  A    between atoms: _433  and  _434
REMARK  187  A    between atoms: _433  and  _436
REMARK  188  A    between atoms: _436  and  _437
REMARK  189  A    between atoms: _440  and  _442
REMARK  190  A    between atoms: _442  and  _443
REMARK  191  A    between atoms: _442  and  _445
REMARK  192  A    between atoms: _445  and  _446
REMARK  193  A    between atoms: _452  and  _454
REMARK  194  A    between atoms: _454  and  _455
REMARK  195  A    between atoms: _454  and  _457
REMARK  196  A    between atoms: _457  and  _458
REMARK  197  A    between atoms: _463  and  _465
REMARK  198  A    between atoms: _465  and  _466
REMARK  199  A    between atoms: _465  and  _468
REMARK  200  A    between atoms: _468  and  _469
REMARK  201  A    between atoms: _469  and  _470
REMARK  202  A    between atoms: _473  and  _474
REMARK  203  A    between atoms: _479  and  _481
REMARK  204  A    between atoms: _481  and  _482
REMARK  205  A    between atoms: _484  and  _486
REMARK  206  A    between atoms: _486  and  _487
REMARK  207  A    between atoms: _490  and  _492
REMARK  208  A    between atoms: _492  and  _493
REMARK  209  A    between atoms: _492  and  _495
REMARK  210  A    between atoms: _495  and  _496
REMARK  211  A    between atoms: _499  and  _501
REMARK  212  A    between atoms: _501  and  _502
REMARK  213  A    between atoms: _504  and  _506
REMARK  214  A    between atoms: _506  and  _507
REMARK  215  A    between atoms: _510  and  _512
REMARK  216  A    between atoms: _512  and  _513
REMARK  217  A    between atoms: _512  and  _515
REMARK  218  A    between atoms: _518  and  _520
REMARK  219  A    between atoms: _520  and  _521
REMARK  220  A    between atoms: _520  and  _523
REMARK  221  A    between atoms: _523  and  _524
REMARK  222  A    between atoms: _527  and  _529
REMARK  223  A    between atoms: _529  and  _530
REMARK  224  A    between atoms: _529  and  _532
REMARK  225  A    between atoms: _532  and  _533
REMARK  226  A    between atoms: _533  and  _534
REMARK  227  A    between atoms: _536  and  _538
REMARK  228  A    between atoms: _538  and  _539
REMARK  229  A    between atoms: _538  and  _541
REMARK  230  A    between atoms: _541  and  _542
REMARK  231  A    between atoms: _547  and  _549
REMARK  232  A    between atoms: _549  and  _550
REMARK  233  A    between atoms: _549  and  _552
REMARK  234  A    between atoms: _552  and  _553
REMARK                            x       y       z     vdW  Elec       q    Type
REMARK                         _______ _______ _______ _____ _____    ______ ____
ROOT
ATOM      1  C   PHE A   3      39.682 -44.178   3.649  0.00  0.00    +0.241 C 
ATOM      2  N   SER A   4      40.063 -42.946   3.322  0.00  0.00    -0.295 N 
ATOM      3  H   SER A   4      39.632 -42.141   3.820  0.00  0.00    +0.150 HD
ATOM      4  O   PHE A   3      40.276 -45.189   3.276  0.00  0.00    -0.273 OA
ENDROOT
BRANCH   2   5
ATOM      5  CA  SER A   4      41.063 -42.681   2.291  0.00  0.00    +0.178 C 
BRANCH   5   6
ATOM      6  C   SER A   4      41.299 -41.185   2.224  0.00  0.00    +0.243 C 
ATOM      7  O   SER A   4      40.377 -40.409   2.474  0.00  0.00    -0.273 OA
ATOM      8  N   TYR A   5      42.519 -40.763   1.901  0.00  0.00    -0.297 N 
ATOM      9  H   TYR A   5      43.316 -41.431   1.867  0.00  0.00    +0.150 HD
BRANCH   8  10
ATOM     10  CA  TYR A   5      42.725 -39.347   1.594  0.00  0.00    +0.153 C 
BRANCH  10  11
ATOM     11  C   TYR A   5      42.904 -39.085   0.093  0.00  0.00    +0.241 C 
ATOM     12  O   TYR A   5      43.468 -38.070  -0.307  0.00  0.00    -0.273 OA
ATOM     13  N   ASP A   6      42.393 -40.011  -0.725  0.00  0.00    -0.298 N 
ATOM     14  H   ASP A   6      42.093 -40.922  -0.323  0.00  0.00    +0.150 HD
BRANCH  13  15
ATOM     15  CA  ASP A   6      42.240 -39.791  -2.166  0.00  0.00    +0.148 C 
BRANCH  15  16
ATOM     16  C   ASP A   6      40.748 -39.585  -2.417  0.00  0.00    +0.227 C 
ATOM     17  O   ASP A   6      40.002 -39.300  -1.476  0.00  0.00    -0.286 OA
ENDBRANCH  15  16
BRANCH  15  18
ATOM     18  CB  ASP A   6      42.753 -41.008  -2.944  0.00  0.00    +0.142 C 
BRANCH  18  19
ATOM     19  CG  ASP A   6      43.190 -40.674  -4.366  0.00  0.00    +0.367 C 
ATOM     20  OD2 ASP A   6      42.955 -39.546  -4.850  0.00  0.00    -0.246 OA
ATOM     21  OD1 ASP A   6      43.783 -41.565  -5.009  0.00  0.00    -0.246 OA
ENDBRANCH  18  19
ENDBRANCH  15  18
ENDBRANCH  13  15
ENDBRANCH  10  11
BRANCH  10  22
ATOM     22  CB  TYR A   5      43.799 -38.681   2.490  0.00  0.00    +0.055 C 
BRANCH  22  23
ATOM     23  CG  TYR A   5      45.250 -39.082   2.295  0.00  0.00    -0.020 A 
ATOM     24  CD2 TYR A   5      45.773 -40.235   2.890  0.00  0.00    -0.001 A 
ATOM     25  CE2 TYR A   5      47.122 -40.579   2.732  0.00  0.00    +0.036 A 
ATOM     26  CZ  TYR A   5      47.955 -39.753   1.993  0.00  0.00    +0.134 A 
ATOM     27  CE1 TYR A   5      47.461 -38.603   1.414  0.00  0.00    +0.036 A 
ATOM     28  CD1 TYR A   5      46.120 -38.263   1.584  0.00  0.00    -0.001 A 
BRANCH  26  29
ATOM     29  OH  TYR A   5      49.285 -40.068   1.815  0.00  0.00    -0.506 OA
ATOM     30  HH  TYR A   5      49.732 -40.119   2.697  0.00  0.00    +0.292 HD
ENDBRANCH  26  29
ENDBRANCH  22  23
ENDBRANCH  10  22
ENDBRANCH   8  10
ENDBRANCH   5   6
BRANCH   5  31
ATOM     31  CB  SER A   4      40.522 -43.151   0.934  0.00  0.00    +0.166 C 
BRANCH  31  32
ATOM     32  OG  SER A   4      41.334 -42.706  -0.149  0.00  0.00    -0.380 OA
ATOM     33  H   SER A   4      42.251 -43.063  -0.041  0.00  0.00    +0.211 HD
ENDBRANCH  31  32
ENDBRANCH   5  31
ENDBRANCH   2   5
BRANCH   1  34
ATOM     34  CA  PHE A   3      38.438 -44.265   4.542  0.00  0.00    +0.153 C 
BRANCH  34  37
ATOM     35  C   MET A   2      36.832 -42.690   3.697  0.00  0.00    +0.241 C 
ATOM     36  O   MET A   2      37.494 -41.771   4.179  0.00  0.00    -0.273 OA
ATOM     37  N   PHE A   3      37.214 -43.963   3.803  0.00  0.00    -0.297 N 
ATOM     38  H   PHE A   3      36.653 -44.724   3.369  0.00  0.00    +0.150 HD
BRANCH  35  39
ATOM     39  CA  MET A   2      35.531 -42.379   2.954  0.00  0.00    +0.149 C 
BRANCH  39  42
ATOM     40  C   SER A   1      34.286 -44.511   3.005  0.00  0.00    +0.241 C 
ATOM     41  O   SER A   1      34.105 -44.493   4.226  0.00  0.00    -0.274 OA
ATOM     42  N   MET A   2      34.885 -43.537   2.329  0.00  0.00    -0.297 N 
ATOM     43  H   MET A   2      34.896 -43.600   1.291  0.00  0.00    +0.150 HD
BRANCH  40  44
ATOM     44  CA  SER A   1      33.839 -45.712   2.176  0.00  0.00    +0.174 C 
BRANCH  44  45
ATOM     45  N   SER A   1      33.877 -45.478   0.716  0.00  0.00    -0.236 NA
ATOM     46  H   SER A   1      32.985 -45.218   0.249  0.00  0.00    +0.142 HD
ENDBRANCH  44  45
BRANCH  44  47
ATOM     47  CB  SER A   1      34.652 -46.940   2.593  0.00  0.00    +0.163 C 
BRANCH  47  48
ATOM     48  OG  SER A   1      36.009 -46.603   2.834  0.00  0.00    -0.380 OA
ATOM     49  H   SER A   1      36.406 -46.227   2.009  0.00  0.00    +0.211 HD
ENDBRANCH  47  48
ENDBRANCH  44  47
ENDBRANCH  40  44
ENDBRANCH  39  42
BRANCH  39  50
ATOM     50  CB  MET A   2      34.559 -41.611   3.864  0.00  0.00    +0.041 C 
BRANCH  50  51
ATOM     51  CG  MET A   2      33.383 -41.010   3.108  0.00  0.00    +0.060 C 
BRANCH  51  52
ATOM     52  SD  MET A   2      32.322 -40.029   4.182  0.00  0.00    -0.139 S 
ATOM     53  CE  MET A   2      31.740 -41.310   5.306  0.00  0.00    +0.069 C 
ENDBRANCH  51  52
ENDBRANCH  50  51
ENDBRANCH  39  50
ENDBRANCH  35  39
ENDBRANCH  34  37
BRANCH  34  54
ATOM     54  CB  PHE A   3      38.365 -45.609   5.273  0.00  0.00    +0.055 C 
BRANCH  54  55
ATOM     55  CG  PHE A   3      39.377 -45.724   6.368  0.00  0.00    -0.020 A 
ATOM     56  CD2 PHE A   3      39.118 -45.196   7.618  0.00  0.00    -0.004 A 
ATOM     57  CE2 PHE A   3      40.064 -45.269   8.627  0.00  0.00    -0.000 A 
ATOM     58  CZ  PHE A   3      41.284 -45.860   8.382  0.00  0.00    -0.000 A 
ATOM     59  CE1 PHE A   3      41.559 -46.383   7.138  0.00  0.00    -0.000 A 
ATOM     60  CD1 PHE A   3      40.608 -46.307   6.133  0.00  0.00    -0.004 A 
ENDBRANCH  54  55
ENDBRANCH  34  54
ENDBRANCH   1  34
TORSDOF 26
REMARK  Name = ../refined-set-2016/3ppm/3ppm_pocket.pdb
REMARK  234 active torsions:
REMARK  status: ('A' for Active; 'I' for Inactive)
REMARK    1  A    between atoms: _1  and  _3
REMARK    2  A    between atoms: _3  and  _4
REMARK    3  A    between atoms: _3  and  _6
REMARK    4  A    between atoms: _6  and  _7
REMARK    5  A    between atoms: _7  and  _8
REMARK    6  A    between atoms: _8  and  _9
REMARK    7  A    between atoms: _9  and  _10
REMARK    8  A    between atoms: _14  and  _16
REMARK    9  A    between atoms: _16  and  _17
REMARK   10  A    between atoms: _16  and  _19
REMARK   11  A    between atoms: _19  and  _20
REMARK   12  A    between atoms: _20  and  _21
REMARK   13  A    between atoms: _24  and  _26
REMARK   14  A    between atoms: _26  and  _27
REMARK   15  A    between atoms: _26  and  _29
REMARK   16  A    between atoms: _31  and  _33
REMARK   17  A    between atoms: _33  and  _34
REMARK   18  A    between atoms: _33  and  _36
REMARK   19  A    between atoms: _36  and  _37
REMARK   20  A    between atoms: _43  and  _45
REMARK   21  A    between atoms: _45  and  _46
REMARK   22  A    between atoms: _45  and  _48
REMARK   23  A    between atoms: _48  and  _49
REMARK   24  A    between atoms: _52  and  _54
REMARK   25  A    between atoms: _54  and  _55
REMARK   26  A    between atoms: _54  and  _57
REMARK   27  A    between atoms: _61  and  _62
REMARK   28  A    between atoms: _67  and  _69
REMARK   29  A    between atoms: _69  and  _70
REMARK   30  A    between atoms: _69  and  _72
REMARK   31  A    between atoms: _72  and  _73
REMARK   32  A    between atoms: _75  and  _77
REMARK   33  A    between atoms: _77  and  _78
REMARK   34  A    between atoms: _77  and  _80
REMARK   35  A    between atoms: _80  and  _81
REMARK   36  A    between atoms: _81  and  _82
REMARK   37  A    between atoms: _84  and  _86
REMARK   38  A    between atoms: _86  and  _87
REMARK   39  A    between atoms: _86  and  _89
REMARK   40  A    between atoms: _89  and  _90
REMARK   41  A    between atoms: _96  and  _98
REMARK   42  A    between atoms: _98  and  _99
REMARK   43  A    between atoms: _98  and  _101
REMARK   44  A    between atoms: _101  and  _102
REMARK   45  A    between atoms: _104  and  _106
REMARK   46  A    between atoms: _106  and  _107
REMARK   47  A    between atoms: _106  and  _109
REMARK   48  A    between atoms: _109  and  _110
REMARK   49  A    between atoms: _115  and  _116
REMARK   50  A    between atoms: _118  and  _120
REMARK   51  A    between atoms: _120  and  _121
REMARK   52  A    between atoms: _120  and  _123
REMARK   53  A    between atoms: _123  and  _124
REMARK   54  A    between atoms: _127  and  _129
REMARK   55  A    between atoms: _129  and  _130
REMARK   56  A    between atoms: _132  and  _134
REMARK   57  A    between atoms: _134  and  _135
REMARK   58  A    between atoms: _134  and  _137
REMARK   59  A    between atoms: _137  and  _138
REMARK   60  A    between atoms: _140  and  _142
REMARK   61  A    between atoms: _142  and  _143
REMARK   62  A    between atoms: _142  and  _145
REMARK   63  A    between atoms: _145  and  _146
REMARK   64  A    between atoms: _148  and  _150
REMARK   65  A    between atoms: _150  and  _151
REMARK   66  A    between atoms: _153  and  _155
REMARK   67  A    between atoms: _155  and  _156
REMARK   68  A    between atoms: _155  and  _158
REMARK   69  A    between atoms: _158  and  _159
REMARK   70  A    between atoms: _162  and  _164
REMARK   71  A    between atoms: _164  and  _165
REMARK   72  A    between atoms: _164  and  _167
REMARK   73  A    between atoms: _167  and  _168
REMARK   74  A    between atoms: _171  and  _173
REMARK   75  A    between atoms: _173  and  _174
REMARK   76  A    between atoms: _173  and  _176
REMARK   77  A    between atoms: _176  and  _177
REMARK   78  A    between atoms: _180  and  _182
REMARK   79  A    between atoms: _182  and  _183
REMARK   80  A    between atoms: _185  and  _187
REMARK   81  A    between atoms: _187  and  _188
REMARK   82  A    between atoms: _190  and  _192
REMARK   83  A    between atoms: _192  and  _193
REMARK   84  A    between atoms: _192  and  _195
REMARK   85  A    between atoms: _195  and  _196
REMARK   86  A    between atoms: _198  and  _200
REMARK   87  A    between atoms: _200  and  _201
REMARK   88  A    between atoms: _200  and  _203
REMARK   89  A    between atoms: _203  and  _204
REMARK   90  A    between atoms: _207  and  _209
REMARK   91  A    between atoms: _209  and  _210
REMARK   92  A    between atoms: _209  and  _212
REMARK   93  A    between atoms: _212  and  _213
REMARK   94  A    between atoms: _213  and  _214
REMARK   95  A    between atoms: _214  and  _215
REMARK   96  A    between atoms: _224  and  _226
REMARK   97  A    between atoms: _226  and  _227
REMARK   98  A    between atoms: _226  and  _229
REMARK   99  A    between atoms: _229  and  _230
REMARK  100  A    between atoms: _236  and  _238
REMARK  101  A    between atoms: _238  and  _239
REMARK  102  A    between atoms: _238  and  _241
REMARK  103  A    between atoms: _241  and  _242
REMARK  104  A    between atoms: _242  and  _243
REMARK  105  A    between atoms: _243  and  _244
REMARK  106  A    between atoms: _244  and  _245
REMARK  107  A    between atoms: _249  and  _251
REMARK  108  A    between atoms: _251  and  _252
REMARK  109  A    between atoms: _254  and  _256
REMARK  110  A    between atoms: _256  and  _257
REMARK  111  A    between atoms: _256  and  _259
REMARK  112  A    between atoms: _259  and  _260
REMARK  113  A    between atoms: _263  and  _265
REMARK  114  A    between atoms: _265  and  _266
REMARK  115  A    between atoms: _265  and  _268
REMARK  116  A    between atoms: _268  and  _269
REMARK  117  A    between atoms: _269  and  _270
REMARK  118  A    between atoms: _270  and  _271
REMARK  119  A    between atoms: _271  and  _272
REMARK  120  A    between atoms: _276  and  _278
REMARK  121  A    between atoms: _278  and  _279
REMARK  122  A    between atoms: _281  and  _283
REMARK  123  A    between atoms: _283  and  _284
REMARK  124  A    between atoms: _283  and  _286
REMARK  125  A    between atoms: _288  and  _290
REMARK  126  A    between atoms: _290  and  _291
REMARK  127  A    between atoms: _290  and  _293
REMARK  128  A    between atoms: _296  and  _298
REMARK  129  A    between atoms: _298  and  _299
REMARK  130  A    between atoms: _298  and  _301
REMARK  131  A    between atoms: _301  and  _302
REMARK  132  A    between atoms: _307  and  _308
REMARK  133  A    between atoms: _310  and  _312
REMARK  134  A    between atoms: _312  and  _313
REMARK  135  A    between atoms: _312  and  _315
REMARK  136  A    between atoms: _315  and  _316
REMARK  137  A    between atoms: _316  and  _317
REMARK  138  A    between atoms: _322  and  _324
REMARK  139  A    between atoms: _324  and  _325
REMARK  140  A    between atoms: _324  and  _327
REMARK  141  A    between atoms: _327  and  _328
REMARK  142  A    between atoms: _331  and  _333
REMARK  143  A    between atoms: _333  and  _334
REMARK  144  A    between atoms: _333  and  _336
REMARK  145  A    between atoms: _336  and  _337
REMARK  146  A    between atoms: _339  and  _341
REMARK  147  A    between atoms: _341  and  _342
REMARK  148  A    between atoms: _341  and  _344
REMARK  149  A    between atoms: _344  and  _345
REMARK  150  A    between atoms: _348  and  _350
REMARK  151  A    between atoms: _350  and  _351
REMARK  152  A    between atoms: _350  and  _353
REMARK  153  A    between atoms: _353  and  _354
REMARK  154  A    between atoms: _357  and  _359
REMARK  155  A    between atoms: _359  and  _360
REMARK  156  A    between atoms: _359  and  _362
REMARK  157  A    between atoms: _362  and  _363
REMARK  158  A    between atoms: _363  and  _364
REMARK  159  A    between atoms: _367  and  _369
REMARK  160  A    between atoms: _369  and  _370
REMARK  161  A    between atoms: _369  and  _372
REMARK  162  A    between atoms: _372  and  _373
REMARK  163  A    between atoms: _375  and  _377
REMARK  164  A    between atoms: _377  and  _378
REMARK  165  A    between atoms: _377  and  _380
REMARK  166  A    between atoms: _380  and  _381
REMARK  167  A    between atoms: _384  and  _386
REMARK  168  A    between atoms: _386  and  _387
REMARK  169  A    between atoms: _389  and  _391
REMARK  170  A    between atoms: _391  and  _392
REMARK  171  A    between atoms: _391  and  _394
REMARK  172  A    between atoms: _394  and  _395
REMARK  173  A    between atoms: _398  and  _400
REMARK  174  A    between atoms: _400  and  _401
REMARK  175  A    between atoms: _400  and  _403
REMARK  176  A    between atoms: _403  and  _404
REMARK  177  A    between atoms: _410  and  _412
REMARK  178  A    between atoms: _412  and  _413
REMARK  179  A    between atoms: _412  and  _415
REMARK  180  A    between atoms: _415  and  _416
REMARK  181  A    between atoms: _422  and  _424
REMARK  182  A    between atoms: _424  and  _425
REMARK  183  A    between atoms: _424  and  _427
REMARK  184  A    between atoms: _427  and  _428
REMARK  185  A    between atoms: _431  and  _433
REMARK  186  A    between atoms: _433  and  _434
REMARK  187  A    between atoms: _433  and  _436
REMARK  188  A    between atoms: _436  and  _437
REMARK  189  A    between atoms: _440  and  _442
REMARK  190  A    between atoms: _442  and  _443
REMARK  191  A    between atoms: _442  and  _445
REMARK  192  A    between atoms: _445  and  _446
REMARK  193  A    between atoms: _452  and  _454
REMARK  194  A    between atoms: _454  and  _455
REMARK  195  A    between atoms: _454  and  _457
REMARK  196  A    between atoms: _457  and  _458
REMARK  197  A    between atoms: _463  and  _465
REMARK  198  A    between atoms: _465  and  _466
REMARK  199  A    between atoms: _465  and  _468
REMARK  200  A    between atoms: _468  and  _469
REMARK  201  A    between atoms: _469  and  _470
REMARK  202  A    between atoms: _473  and  _474
REMARK  203  A    between atoms: _479  and  _481
REMARK  204  A    between atoms: _481  and  _482
REMARK  205  A    between atoms: _484  and  _486
REMARK  206  A    between atoms: _486  and  _487
REMARK  207  A    between atoms: _490  and  _492
REMARK  208  A    between atoms: _492  and  _493
REMARK  209  A    between atoms: _492  and  _495
REMARK  210  A    between atoms: _495  and  _496
REMARK  211  A    between atoms: _499  and  _501
REMARK  212  A    between atoms: _501  and  _502
REMARK  213  A    between atoms: _504  and  _506
REMARK  214  A    between atoms: _506  and  _507
REMARK  215  A    between atoms: _510  and  _512
REMARK  216  A    between atoms: _512  and  _513
REMARK  217  A    between atoms: _512  and  _515
REMARK  218  A    between atoms: _518  and  _520
REMARK  219  A    between atoms: _520  and  _521
REMARK  220  A    between atoms: _520  and  _523
REMARK  221  A    between atoms: _523  and  _524
REMARK  222  A    between atoms: _527  and  _529
REMARK  223  A    between atoms: _529  and  _530
REMARK  224  A    between atoms: _529  and  _532
REMARK  225  A    between atoms: _532  and  _533
REMARK  226  A    between atoms: _533  and  _534
REMARK  227  A    between atoms: _536  and  _538
REMARK  228  A    between atoms: _538  and  _539
REMARK  229  A    between atoms: _538  and  _541
REMARK  230  A    between atoms: _541  and  _542
REMARK  231  A    between atoms: _547  and  _549
REMARK  232  A    between atoms: _549  and  _550
REMARK  233  A    between atoms: _549  and  _552
REMARK  234  A    between atoms: _552  and  _553
REMARK                            x       y       z     vdW  Elec       q    Type
REMARK                         _______ _______ _______ _____ _____    ______ ____
ROOT
ATOM      1  CA  SER A   2      38.017 -37.882   1.890  0.00  0.00    +0.178 C 
ENDROOT
BRANCH   1   4
ATOM      2  C   GLY A   1      40.224 -36.828   2.077  0.00  0.00    +0.240 C 
ATOM      3  O   GLY A   1      41.231 -36.520   2.702  0.00  0.00    -0.274 OA
ATOM      4  N   SER A   2      39.170 -37.400   2.651  0.00  0.00    -0.295 N 
ATOM      5  H   SER A   2      39.165 -37.510   3.685  0.00  0.00    +0.150 HD
BRANCH   2   6
ATOM      6  CA  GLY A   1      40.161 -36.579   0.585  0.00  0.00    +0.169 C 
BRANCH   6   7
ATOM      7  N   GLY A   1      41.392 -35.947   0.135  0.00  0.00    -0.236 NA
ATOM      8  H   GLY A   1      42.127 -35.706   0.830  0.00  0.00    +0.142 HD
ENDBRANCH   6   7
ENDBRANCH   2   6
ENDBRANCH   1   4
BRANCH   1   9
ATOM      9  C   SER A   2      37.049 -36.785   1.426  0.00  0.00    +0.243 C 
ATOM     10  N   SER A   3      37.188 -35.551   1.928  0.00  0.00    -0.296 N 
ATOM     11  H   SER A   3      37.898 -35.366   2.665  0.00  0.00    +0.150 HD
ATOM     12  O   SER A   2      36.171 -37.059   0.605  0.00  0.00    -0.273 OA
BRANCH  10  13
ATOM     13  CA  SER A   3      36.331 -34.452   1.434  0.00  0.00    +0.166 C 
BRANCH  13  14
ATOM     14  C   SER A   3      36.859 -33.894   0.111  0.00  0.00    +0.229 C 
ATOM     15  O   SER A   3      36.970 -32.680  -0.057  0.00  0.00    -0.286 OA
ENDBRANCH  13  14
BRANCH  13  16
ATOM     16  CB  SER A   3      36.251 -33.306   2.449  0.00  0.00    +0.165 C 
BRANCH  16  17
ATOM     17  OG  SER A   3      35.946 -33.805   3.750  0.00  0.00    -0.380 OA
ATOM     18  H   SER A   3      36.654 -34.436   4.034  0.00  0.00    +0.211 HD
ENDBRANCH  16  17
ENDBRANCH  13  16
ENDBRANCH  10  13
ENDBRANCH   1   9
BRANCH   1  19
ATOM     19  CB  SER A   2      37.264 -38.949   2.705  0.00  0.00    +0.166 C 
BRANCH  19  20
ATOM     20  OG  SER A   2      36.745 -38.395   3.908  0.00  0.00    -0.380 OA
ATOM     21  H   SER A   2      37.490 -38.042   4.456  0.00  0.00    +0.211 HD
ENDBRANCH  19  20
ENDBRANCH   1  19
TORSDOF 10
REMARK  Name = ../refined-set-2016/3ppm/3ppm_pocket.pdb
REMARK  234 active torsions:
REMARK  status: ('A' for Active; 'I' for Inactive)
REMARK    1  A    between atoms: _1  and  _3
REMARK    2  A    between atoms: _3  and  _4
REMARK    3  A    between atoms: _3  and  _6
REMARK    4  A    between atoms: _6  and  _7
REMARK    5  A    between atoms: _7  and  _8
REMARK    6  A    between atoms: _8  and  _9
REMARK    7  A    between atoms: _9  and  _10
REMARK    8  A    between atoms: _14  and  _16
REMARK    9  A    between atoms: _16  and  _17
REMARK   10  A    between atoms: _16  and  _19
REMARK   11  A    between atoms: _19  and  _20
REMARK   12  A    between atoms: _20  and  _21
REMARK   13  A    between atoms: _24  and  _26
REMARK   14  A    between atoms: _26  and  _27
REMARK   15  A    between atoms: _26  and  _29
REMARK   16  A    between atoms: _31  and  _33
REMARK   17  A    between atoms: _33  and  _34
REMARK   18  A    between atoms: _33  and  _36
REMARK   19  A    between atoms: _36  and  _37
REMARK   20  A    between atoms: _43  and  _45
REMARK   21  A    between atoms: _45  and  _46
REMARK   22  A    between atoms: _45  and  _48
REMARK   23  A    between atoms: _48  and  _49
REMARK   24  A    between atoms: _52  and  _54
REMARK   25  A    between atoms: _54  and  _55
REMARK   26  A    between atoms: _54  and  _57
REMARK   27  A    between atoms: _61  and  _62
REMARK   28  A    between atoms: _67  and  _69
REMARK   29  A    between atoms: _69  and  _70
REMARK   30  A    between atoms: _69  and  _72
REMARK   31  A    between atoms: _72  and  _73
REMARK   32  A    between atoms: _75  and  _77
REMARK   33  A    between atoms: _77  and  _78
REMARK   34  A    between atoms: _77  and  _80
REMARK   35  A    between atoms: _80  and  _81
REMARK   36  A    between atoms: _81  and  _82
REMARK   37  A    between atoms: _84  and  _86
REMARK   38  A    between atoms: _86  and  _87
REMARK   39  A    between atoms: _86  and  _89
REMARK   40  A    between atoms: _89  and  _90
REMARK   41  A    between atoms: _96  and  _98
REMARK   42  A    between atoms: _98  and  _99
REMARK   43  A    between atoms: _98  and  _101
REMARK   44  A    between atoms: _101  and  _102
REMARK   45  A    between atoms: _104  and  _106
REMARK   46  A    between atoms: _106  and  _107
REMARK   47  A    between atoms: _106  and  _109
REMARK   48  A    between atoms: _109  and  _110
REMARK   49  A    between atoms: _115  and  _116
REMARK   50  A    between atoms: _118  and  _120
REMARK   51  A    between atoms: _120  and  _121
REMARK   52  A    between atoms: _120  and  _123
REMARK   53  A    between atoms: _123  and  _124
REMARK   54  A    between atoms: _127  and  _129
REMARK   55  A    between atoms: _129  and  _130
REMARK   56  A    between atoms: _132  and  _134
REMARK   57  A    between atoms: _134  and  _135
REMARK   58  A    between atoms: _134  and  _137
REMARK   59  A    between atoms: _137  and  _138
REMARK   60  A    between atoms: _140  and  _142
REMARK   61  A    between atoms: _142  and  _143
REMARK   62  A    between atoms: _142  and  _145
REMARK   63  A    between atoms: _145  and  _146
REMARK   64  A    between atoms: _148  and  _150
REMARK   65  A    between atoms: _150  and  _151
REMARK   66  A    between atoms: _153  and  _155
REMARK   67  A    between atoms: _155  and  _156
REMARK   68  A    between atoms: _155  and  _158
REMARK   69  A    between atoms: _158  and  _159
REMARK   70  A    between atoms: _162  and  _164
REMARK   71  A    between atoms: _164  and  _165
REMARK   72  A    between atoms: _164  and  _167
REMARK   73  A    between atoms: _167  and  _168
REMARK   74  A    between atoms: _171  and  _173
REMARK   75  A    between atoms: _173  and  _174
REMARK   76  A    between atoms: _173  and  _176
REMARK   77  A    between atoms: _176  and  _177
REMARK   78  A    between atoms: _180  and  _182
REMARK   79  A    between atoms: _182  and  _183
REMARK   80  A    between atoms: _185  and  _187
REMARK   81  A    between atoms: _187  and  _188
REMARK   82  A    between atoms: _190  and  _192
REMARK   83  A    between atoms: _192  and  _193
REMARK   84  A    between atoms: _192  and  _195
REMARK   85  A    between atoms: _195  and  _196
REMARK   86  A    between atoms: _198  and  _200
REMARK   87  A    between atoms: _200  and  _201
REMARK   88  A    between atoms: _200  and  _203
REMARK   89  A    between atoms: _203  and  _204
REMARK   90  A    between atoms: _207  and  _209
REMARK   91  A    between atoms: _209  and  _210
REMARK   92  A    between atoms: _209  and  _212
REMARK   93  A    between atoms: _212  and  _213
REMARK   94  A    between atoms: _213  and  _214
REMARK   95  A    between atoms: _214  and  _215
REMARK   96  A    between atoms: _224  and  _226
REMARK   97  A    between atoms: _226  and  _227
REMARK   98  A    between atoms: _226  and  _229
REMARK   99  A    between atoms: _229  and  _230
REMARK  100  A    between atoms: _236  and  _238
REMARK  101  A    between atoms: _238  and  _239
REMARK  102  A    between atoms: _238  and  _241
REMARK  103  A    between atoms: _241  and  _242
REMARK  104  A    between atoms: _242  and  _243
REMARK  105  A    between atoms: _243  and  _244
REMARK  106  A    between atoms: _244  and  _245
REMARK  107  A    between atoms: _249  and  _251
REMARK  108  A    between atoms: _251  and  _252
REMARK  109  A    between atoms: _254  and  _256
REMARK  110  A    between atoms: _256  and  _257
REMARK  111  A    between atoms: _256  and  _259
REMARK  112  A    between atoms: _259  and  _260
REMARK  113  A    between atoms: _263  and  _265
REMARK  114  A    between atoms: _265  and  _266
REMARK  115  A    between atoms: _265  and  _268
REMARK  116  A    between atoms: _268  and  _269
REMARK  117  A    between atoms: _269  and  _270
REMARK  118  A    between atoms: _270  and  _271
REMARK  119  A    between atoms: _271  and  _272
REMARK  120  A    between atoms: _276  and  _278
REMARK  121  A    between atoms: _278  and  _279
REMARK  122  A    between atoms: _281  and  _283
REMARK  123  A    between atoms: _283  and  _284
REMARK  124  A    between atoms: _283  and  _286
REMARK  125  A    between atoms: _288  and  _290
REMARK  126  A    between atoms: _290  and  _291
REMARK  127  A    between atoms: _290  and  _293
REMARK  128  A    between atoms: _296  and  _298
REMARK  129  A    between atoms: _298  and  _299
REMARK  130  A    between atoms: _298  and  _301
REMARK  131  A    between atoms: _301  and  _302
REMARK  132  A    between atoms: _307  and  _308
REMARK  133  A    between atoms: _310  and  _312
REMARK  134  A    between atoms: _312  and  _313
REMARK  135  A    between atoms: _312  and  _315
REMARK  136  A    between atoms: _315  and  _316
REMARK  137  A    between atoms: _316  and  _317
REMARK  138  A    between atoms: _322  and  _324
REMARK  139  A    between atoms: _324  and  _325
REMARK  140  A    between atoms: _324  and  _327
REMARK  141  A    between atoms: _327  and  _328
REMARK  142  A    between atoms: _331  and  _333
REMARK  143  A    between atoms: _333  and  _334
REMARK  144  A    between atoms: _333  and  _336
REMARK  145  A    between atoms: _336  and  _337
REMARK  146  A    between atoms: _339  and  _341
REMARK  147  A    between atoms: _341  and  _342
REMARK  148  A    between atoms: _341  and  _344
REMARK  149  A    between atoms: _344  and  _345
REMARK  150  A    between atoms: _348  and  _350
REMARK  151  A    between atoms: _350  and  _351
REMARK  152  A    between atoms: _350  and  _353
REMARK  153  A    between atoms: _353  and  _354
REMARK  154  A    between atoms: _357  and  _359
REMARK  155  A    between atoms: _359  and  _360
REMARK  156  A    between atoms: _359  and  _362
REMARK  157  A    between atoms: _362  and  _363
REMARK  158  A    between atoms: _363  and  _364
REMARK  159  A    between atoms: _367  and  _369
REMARK  160  A    between atoms: _369  and  _370
REMARK  161  A    between atoms: _369  and  _372
REMARK  162  A    between atoms: _372  and  _373
REMARK  163  A    between atoms: _375  and  _377
REMARK  164  A    between atoms: _377  and  _378
REMARK  165  A    between atoms: _377  and  _380
REMARK  166  A    between atoms: _380  and  _381
REMARK  167  A    between atoms: _384  and  _386
REMARK  168  A    between atoms: _386  and  _387
REMARK  169  A    between atoms: _389  and  _391
REMARK  170  A    between atoms: _391  and  _392
REMARK  171  A    between atoms: _391  and  _394
REMARK  172  A    between atoms: _394  and  _395
REMARK  173  A    between atoms: _398  and  _400
REMARK  174  A    between atoms: _400  and  _401
REMARK  175  A    between atoms: _400  and  _403
REMARK  176  A    between atoms: _403  and  _404
REMARK  177  A    between atoms: _410  and  _412
REMARK  178  A    between atoms: _412  and  _413
REMARK  179  A    between atoms: _412  and  _415
REMARK  180  A    between atoms: _415  and  _416
REMARK  181  A    between atoms: _422  and  _424
REMARK  182  A    between atoms: _424  and  _425
REMARK  183  A    between atoms: _424  and  _427
REMARK  184  A    between atoms: _427  and  _428
REMARK  185  A    between atoms: _431  and  _433
REMARK  186  A    between atoms: _433  and  _434
REMARK  187  A    between atoms: _433  and  _436
REMARK  188  A    between atoms: _436  and  _437
REMARK  189  A    between atoms: _440  and  _442
REMARK  190  A    between atoms: _442  and  _443
REMARK  191  A    between atoms: _442  and  _445
REMARK  192  A    between atoms: _445  and  _446
REMARK  193  A    between atoms: _452  and  _454
REMARK  194  A    between atoms: _454  and  _455
REMARK  195  A    between atoms: _454  and  _457
REMARK  196  A    between atoms: _457  and  _458
REMARK  197  A    between atoms: _463  and  _465
REMARK  198  A    between atoms: _465  and  _466
REMARK  199  A    between atoms: _465  and  _468
REMARK  200  A    between atoms: _468  and  _469
REMARK  201  A    between atoms: _469  and  _470
REMARK  202  A    between atoms: _473  and  _474
REMARK  203  A    between atoms: _479  and  _481
REMARK  204  A    between atoms: _481  and  _482
REMARK  205  A    between atoms: _484  and  _486
REMARK  206  A    between atoms: _486  and  _487
REMARK  207  A    between atoms: _490  and  _492
REMARK  208  A    between atoms: _492  and  _493
REMARK  209  A    between atoms: _492  and  _495
REMARK  210  A    between atoms: _495  and  _496
REMARK  211  A    between atoms: _499  and  _501
REMARK  212  A    between atoms: _501  and  _502
REMARK  213  A    between atoms: _504  and  _506
REMARK  214  A    between atoms: _506  and  _507
REMARK  215  A    between atoms: _510  and  _512
REMARK  216  A    between atoms: _512  and  _513
REMARK  217  A    between atoms: _512  and  _515
REMARK  218  A    between atoms: _518  and  _520
REMARK  219  A    between atoms: _520  and  _521
REMARK  220  A    between atoms: _520  and  _523
REMARK  221  A    between atoms: _523  and  _524
REMARK  222  A    between atoms: _527  and  _529
REMARK  223  A    between atoms: _529  and  _530
REMARK  224  A    between atoms: _529  and  _532
REMARK  225  A    between atoms: _532  and  _533
REMARK  226  A    between atoms: _533  and  _534
REMARK  227  A    between atoms: _536  and  _538
REMARK  228  A    between atoms: _538  and  _539
REMARK  229  A    between atoms: _538  and  _541
REMARK  230  A    between atoms: _541  and  _542
REMARK  231  A    between atoms: _547  and  _549
REMARK  232  A    between atoms: _549  and  _550
REMARK  233  A    between atoms: _549  and  _552
REMARK  234  A    between atoms: _552  and  _553
REMARK                            x       y       z     vdW  Elec       q    Type
REMARK                         _______ _______ _______ _____ _____    ______ ____
ROOT
ATOM      1  C   GLY A   6      41.758 -35.053   6.907  0.00  0.00    +0.243 C 
ATOM      2  N   SER A   7      40.568 -35.656   6.817  0.00  0.00    -0.295 N 
ATOM      3  H   SER A   7      40.224 -36.232   7.612  0.00  0.00    +0.150 HD
ATOM      4  O   GLY A   6      42.116 -34.177   6.118  0.00  0.00    -0.273 OA
ENDROOT
BRANCH   2   5
ATOM      5  CA  SER A   7      39.734 -35.517   5.605  0.00  0.00    +0.178 C 
BRANCH   5   6
ATOM      6  C   SER A   7      39.174 -34.135   5.247  0.00  0.00    +0.243 C 
ATOM      7  N   ILE A   8      39.273 -33.170   6.154  0.00  0.00    -0.297 N 
ATOM      8  H   ILE A   8      39.550 -33.408   7.128  0.00  0.00    +0.150 HD
ATOM      9  O   SER A   7      38.634 -33.956   4.147  0.00  0.00    -0.273 OA
BRANCH   7  10
ATOM     10  CA  ILE A   8      38.997 -31.775   5.801  0.00  0.00    +0.149 C 
BRANCH  10  11
ATOM     11  C   ILE A   8      40.301 -31.093   5.384  0.00  0.00    +0.241 C 
ATOM     12  N   ARG A   9      41.374 -31.473   6.063  0.00  0.00    -0.297 N 
ATOM     13  H   ARG A   9      41.298 -32.278   6.718  0.00  0.00    +0.150 HD
ATOM     14  O   ILE A   8      40.345 -30.263   4.462  0.00  0.00    -0.273 OA
BRANCH  12  15
ATOM     15  CA  ARG A   9      42.655 -30.797   5.919  0.00  0.00    +0.149 C 
BRANCH  15  16
ATOM     16  C   ARG A   9      43.428 -31.208   4.663  0.00  0.00    +0.241 C 
ATOM     17  N   PHE A  10      43.435 -32.500   4.332  0.00  0.00    -0.298 N 
ATOM     18  H   PHE A  10      42.974 -33.194   4.954  0.00  0.00    +0.150 HD
ATOM     19  O   ARG A   9      43.969 -30.340   3.969  0.00  0.00    -0.273 OA
BRANCH  17  20
ATOM     20  CA  PHE A  10      44.089 -32.951   3.094  0.00  0.00    +0.141 C 
BRANCH  20  21
ATOM     21  C   PHE A  10      43.542 -32.240   1.843  0.00  0.00    +0.227 C 
ATOM     22  O   PHE A  10      44.311 -31.663   1.071  0.00  0.00    -0.286 OA
ENDBRANCH  20  21
BRANCH  20  23
ATOM     23  CB  PHE A  10      43.947 -34.464   2.882  0.00  0.00    +0.054 C 
BRANCH  23  24
ATOM     24  CG  PHE A  10      44.771 -35.303   3.808  0.00  0.00    -0.020 A 
ATOM     25  CD2 PHE A  10      44.151 -36.182   4.686  0.00  0.00    -0.004 A 
ATOM     26  CE2 PHE A  10      44.904 -36.984   5.531  0.00  0.00    -0.000 A 
ATOM     27  CZ  PHE A  10      46.284 -36.909   5.500  0.00  0.00    -0.000 A 
ATOM     28  CE1 PHE A  10      46.915 -36.047   4.618  0.00  0.00    -0.000 A 
ATOM     29  CD1 PHE A  10      46.158 -35.253   3.771  0.00  0.00    -0.004 A 
ENDBRANCH  23  24
ENDBRANCH  20  23
ENDBRANCH  17  20
ENDBRANCH  15  16
BRANCH  15  30
ATOM     30  CB  ARG A   9      43.474 -30.966   7.206  0.00  0.00    +0.033 C 
BRANCH  30  31
ATOM     31  CG  ARG A   9      42.784 -30.268   8.392  0.00  0.00    +0.045 C 
BRANCH  31  32
ATOM     32  CD  ARG A   9      43.290 -30.764   9.735  0.00  0.00    +0.174 C 
BRANCH  32  33
ATOM     33  NE  ARG A   9      42.765 -32.096  10.047  0.00  0.00    -0.265 N 
ATOM     34  CZ  ARG A   9      43.306 -32.915  10.946  0.00  0.00    +0.342 C 
ATOM     35  NH2 ARG A   9      44.413 -32.556  11.596  0.00  0.00    -0.292 N 
ATOM     36 HH21 ARG A   9      44.835 -33.197  12.298  0.00  0.00    +0.255 HD
ATOM     37 HH22 ARG A   9      44.855 -31.635  11.401  0.00  0.00    +0.255 HD
ATOM     38  NH1 ARG A   9      42.758 -34.104  11.175  0.00  0.00    -0.292 N 
ATOM     39 HH11 ARG A   9      43.180 -34.745  11.877  0.00  0.00    +0.255 HD
ATOM     40 HH12 ARG A   9      41.907 -34.394  10.652  0.00  0.00    +0.255 HD
ATOM     41  HE  ARG A   9      41.920 -32.421   9.536  0.00  0.00    +0.259 HD
ENDBRANCH  32  33
ENDBRANCH  31  32
ENDBRANCH  30  31
ENDBRANCH  15  30
ENDBRANCH  12  15
ENDBRANCH  10  11
BRANCH  10  42
ATOM     42  CB  ILE A   8      38.379 -31.024   7.001  0.00  0.00    +0.027 C 
ATOM     43  CG2 ILE A   8      38.571 -29.505   6.862  0.00  0.00    +0.002 C 
BRANCH  42  44
ATOM     44  CG1 ILE A   8      36.886 -31.359   7.117  0.00  0.00    +0.002 C 
ATOM     45  CD1 ILE A   8      36.330 -31.040   8.510  0.00  0.00    +0.000 C 
ENDBRANCH  42  44
ENDBRANCH  10  42
ENDBRANCH   7  10
ENDBRANCH   5   6
BRANCH   5  46
ATOM     46  CB  SER A   7      38.611 -36.559   5.583  0.00  0.00    +0.166 C 
BRANCH  46  47
ATOM     47  OG  SER A   7      39.155 -37.857   5.423  0.00  0.00    -0.380 OA
ATOM     48  H   SER A   7      38.421 -38.522   5.410  0.00  0.00    +0.211 HD
ENDBRANCH  46  47
ENDBRANCH   5  46
ENDBRANCH   2   5
BRANCH   1  49
ATOM     49  CA  GLY A   6      42.676 -35.460   8.055  0.00  0.00    +0.176 C 
BRANCH  49  52
ATOM     50  C   GLY A   5      42.952 -37.605   9.215  0.00  0.00    +0.243 C 
ATOM     51  O   GLY A   5      44.140 -37.711   8.905  0.00  0.00    -0.273 OA
ATOM     52  N   GLY A   6      42.183 -36.569   8.864  0.00  0.00    -0.295 N 
ATOM     53  H   GLY A   6      41.193 -36.553   9.181  0.00  0.00    +0.150 HD
BRANCH  50  54
ATOM     54  CA  GLY A   5      42.280 -38.691  10.036  0.00  0.00    +0.176 C 
BRANCH  54  57
ATOM     55  C   ILE A   4      40.178 -38.787  11.260  0.00  0.00    +0.241 C 
ATOM     56  O   ILE A   4      40.725 -39.276  12.255  0.00  0.00    -0.273 OA
ATOM     57  N   GLY A   5      40.844 -38.490  10.144  0.00  0.00    -0.295 N 
ATOM     58  H   GLY A   5      40.323 -38.105   9.330  0.00  0.00    +0.150 HD
BRANCH  55  59
ATOM     59  CA  ILE A   4      38.673 -38.456  11.260  0.00  0.00    +0.149 C 
BRANCH  59  62
ATOM     60  C   ASP A   3      37.690 -36.403  10.395  0.00  0.00    +0.241 C 
ATOM     61  O   ASP A   3      37.226 -36.100  11.504  0.00  0.00    -0.273 OA
ATOM     62  N   ILE A   4      38.331 -37.548  10.162  0.00  0.00    -0.297 N 
ATOM     63  H   ILE A   4      38.592 -37.800   9.187  0.00  0.00    +0.150 HD
BRANCH  60  64
ATOM     64  CA  ASP A   3      37.504 -35.473   9.197  0.00  0.00    +0.160 C 
BRANCH  64  66
ATOM     65  C   THR A   2      35.633 -34.867   7.797  0.00  0.00    +0.243 C 
ATOM     66  N   ASP A   3      36.073 -35.279   8.979  0.00  0.00    -0.296 N 
ATOM     67  H   ASP A   3      35.399 -35.464   9.750  0.00  0.00    +0.150 HD
ATOM     68  O   THR A   2      36.325 -34.890   6.780  0.00  0.00    -0.273 OA
BRANCH  65  69
ATOM     69  CA  THR A   2      34.195 -34.378   7.741  0.00  0.00    +0.176 C 
BRANCH  69  72
ATOM     70  C   GLY A   1      33.409 -32.471   6.446  0.00  0.00    +0.240 C 
ATOM     71  O   GLY A   1      32.872 -31.972   7.437  0.00  0.00    -0.274 OA
ATOM     72  N   THR A   2      34.014 -33.657   6.483  0.00  0.00    -0.295 N 
ATOM     73  H   THR A   2      34.364 -34.078   5.599  0.00  0.00    +0.150 HD
BRANCH  70  74
ATOM     74  CA  GLY A   1      33.382 -31.759   5.095  0.00  0.00    +0.169 C 
BRANCH  74  75
ATOM     75  N   GLY A   1      32.727 -30.459   5.175  0.00  0.00    -0.236 NA
ATOM     76  H   GLY A   1      33.061 -29.772   5.881  0.00  0.00    +0.142 HD
ENDBRANCH  74  75
ENDBRANCH  70  74
ENDBRANCH  69  72
BRANCH  69  77
ATOM     77  CB  THR A   2      33.232 -35.576   7.896  0.00  0.00    +0.137 C 
ATOM     78  CG2 THR A   2      31.759 -35.107   7.861  0.00  0.00    +0.034 C 
BRANCH  77  79
ATOM     79  OG1 THR A   2      33.469 -36.513   6.840  0.00  0.00    -0.382 OA
ATOM     80  HG1 THR A   2      32.853 -37.282   6.938  0.00  0.00    +0.210 HD
ENDBRANCH  77  79
ENDBRANCH  69  77
ENDBRANCH  65  69
ENDBRANCH  64  66
BRANCH  64  81
ATOM     81  CB  ASP A   3      38.139 -34.085   9.435  0.00  0.00    +0.143 C 
BRANCH  81  82
ATOM     82  CG  ASP A   3      39.658 -34.117   9.509  0.00  0.00    +0.367 C 
ATOM     83  OD2 ASP A   3      40.220 -34.997  10.193  0.00  0.00    -0.246 OA
ATOM     84  OD1 ASP A   3      40.295 -33.233   8.905  0.00  0.00    -0.246 OA
ENDBRANCH  81  82
ENDBRANCH  64  81
ENDBRANCH  60  64
ENDBRANCH  59  62
BRANCH  59  85
ATOM     85  CB  ILE A   4      37.799 -39.730  11.240  0.00  0.00    +0.027 C 
ATOM     86  CG2 ILE A   4      38.265 -40.699  10.171  0.00  0.00    +0.002 C 
BRANCH  85  87
ATOM     87  CG1 ILE A   4      37.783 -40.400  12.624  0.00  0.00    +0.002 C 
ATOM     88  CD1 ILE A   4      36.778 -41.544  12.704  0.00  0.00    +0.000 C 
ENDBRANCH  85  87
ENDBRANCH  59  85
ENDBRANCH  55  59
ENDBRANCH  54  57
ENDBRANCH  50  54
ENDBRANCH  49  52
ENDBRANCH   1  49
TORSDOF 36
REMARK  Name = ../refined-set-2016/3ppm/3ppm_pocket.pdb
REMARK  234 active torsions:
REMARK  status: ('A' for Active; 'I' for Inactive)
REMARK    1  A    between atoms: _1  and  _3
REMARK    2  A    between atoms: _3  and  _4
REMARK    3  A    between atoms: _3  and  _6
REMARK    4  A    between atoms: _6  and  _7
REMARK    5  A    between atoms: _7  and  _8
REMARK    6  A    between atoms: _8  and  _9
REMARK    7  A    between atoms: _9  and  _10
REMARK    8  A    between atoms: _14  and  _16
REMARK    9  A    between atoms: _16  and  _17
REMARK   10  A    between atoms: _16  and  _19
REMARK   11  A    between atoms: _19  and  _20
REMARK   12  A    between atoms: _20  and  _21
REMARK   13  A    between atoms: _24  and  _26
REMARK   14  A    between atoms: _26  and  _27
REMARK   15  A    between atoms: _26  and  _29
REMARK   16  A    between atoms: _31  and  _33
REMARK   17  A    between atoms: _33  and  _34
REMARK   18  A    between atoms: _33  and  _36
REMARK   19  A    between atoms: _36  and  _37
REMARK   20  A    between atoms: _43  and  _45
REMARK   21  A    between atoms: _45  and  _46
REMARK   22  A    between atoms: _45  and  _48
REMARK   23  A    between atoms: _48  and  _49
REMARK   24  A    between atoms: _52  and  _54
REMARK   25  A    between atoms: _54  and  _55
REMARK   26  A    between atoms: _54  and  _57
REMARK   27  A    between atoms: _61  and  _62
REMARK   28  A    between atoms: _67  and  _69
REMARK   29  A    between atoms: _69  and  _70
REMARK   30  A    between atoms: _69  and  _72
REMARK   31  A    between atoms: _72  and  _73
REMARK   32  A    between atoms: _75  and  _77
REMARK   33  A    between atoms: _77  and  _78
REMARK   34  A    between atoms: _77  and  _80
REMARK   35  A    between atoms: _80  and  _81
REMARK   36  A    between atoms: _81  and  _82
REMARK   37  A    between atoms: _84  and  _86
REMARK   38  A    between atoms: _86  and  _87
REMARK   39  A    between atoms: _86  and  _89
REMARK   40  A    between atoms: _89  and  _90
REMARK   41  A    between atoms: _96  and  _98
REMARK   42  A    between atoms: _98  and  _99
REMARK   43  A    between atoms: _98  and  _101
REMARK   44  A    between atoms: _101  and  _102
REMARK   45  A    between atoms: _104  and  _106
REMARK   46  A    between atoms: _106  and  _107
REMARK   47  A    between atoms: _106  and  _109
REMARK   48  A    between atoms: _109  and  _110
REMARK   49  A    between atoms: _115  and  _116
REMARK   50  A    between atoms: _118  and  _120
REMARK   51  A    between atoms: _120  and  _121
REMARK   52  A    between atoms: _120  and  _123
REMARK   53  A    between atoms: _123  and  _124
REMARK   54  A    between atoms: _127  and  _129
REMARK   55  A    between atoms: _129  and  _130
REMARK   56  A    between atoms: _132  and  _134
REMARK   57  A    between atoms: _134  and  _135
REMARK   58  A    between atoms: _134  and  _137
REMARK   59  A    between atoms: _137  and  _138
REMARK   60  A    between atoms: _140  and  _142
REMARK   61  A    between atoms: _142  and  _143
REMARK   62  A    between atoms: _142  and  _145
REMARK   63  A    between atoms: _145  and  _146
REMARK   64  A    between atoms: _148  and  _150
REMARK   65  A    between atoms: _150  and  _151
REMARK   66  A    between atoms: _153  and  _155
REMARK   67  A    between atoms: _155  and  _156
REMARK   68  A    between atoms: _155  and  _158
REMARK   69  A    between atoms: _158  and  _159
REMARK   70  A    between atoms: _162  and  _164
REMARK   71  A    between atoms: _164  and  _165
REMARK   72  A    between atoms: _164  and  _167
REMARK   73  A    between atoms: _167  and  _168
REMARK   74  A    between atoms: _171  and  _173
REMARK   75  A    between atoms: _173  and  _174
REMARK   76  A    between atoms: _173  and  _176
REMARK   77  A    between atoms: _176  and  _177
REMARK   78  A    between atoms: _180  and  _182
REMARK   79  A    between atoms: _182  and  _183
REMARK   80  A    between atoms: _185  and  _187
REMARK   81  A    between atoms: _187  and  _188
REMARK   82  A    between atoms: _190  and  _192
REMARK   83  A    between atoms: _192  and  _193
REMARK   84  A    between atoms: _192  and  _195
REMARK   85  A    between atoms: _195  and  _196
REMARK   86  A    between atoms: _198  and  _200
REMARK   87  A    between atoms: _200  and  _201
REMARK   88  A    between atoms: _200  and  _203
REMARK   89  A    between atoms: _203  and  _204
REMARK   90  A    between atoms: _207  and  _209
REMARK   91  A    between atoms: _209  and  _210
REMARK   92  A    between atoms: _209  and  _212
REMARK   93  A    between atoms: _212  and  _213
REMARK   94  A    between atoms: _213  and  _214
REMARK   95  A    between atoms: _214  and  _215
REMARK   96  A    between atoms: _224  and  _226
REMARK   97  A    between atoms: _226  and  _227
REMARK   98  A    between atoms: _226  and  _229
REMARK   99  A    between atoms: _229  and  _230
REMARK  100  A    between atoms: _236  and  _238
REMARK  101  A    between atoms: _238  and  _239
REMARK  102  A    between atoms: _238  and  _241
REMARK  103  A    between atoms: _241  and  _242
REMARK  104  A    between atoms: _242  and  _243
REMARK  105  A    between atoms: _243  and  _244
REMARK  106  A    between atoms: _244  and  _245
REMARK  107  A    between atoms: _249  and  _251
REMARK  108  A    between atoms: _251  and  _252
REMARK  109  A    between atoms: _254  and  _256
REMARK  110  A    between atoms: _256  and  _257
REMARK  111  A    between atoms: _256  and  _259
REMARK  112  A    between atoms: _259  and  _260
REMARK  113  A    between atoms: _263  and  _265
REMARK  114  A    between atoms: _265  and  _266
REMARK  115  A    between atoms: _265  and  _268
REMARK  116  A    between atoms: _268  and  _269
REMARK  117  A    between atoms: _269  and  _270
REMARK  118  A    between atoms: _270  and  _271
REMARK  119  A    between atoms: _271  and  _272
REMARK  120  A    between atoms: _276  and  _278
REMARK  121  A    between atoms: _278  and  _279
REMARK  122  A    between atoms: _281  and  _283
REMARK  123  A    between atoms: _283  and  _284
REMARK  124  A    between atoms: _283  and  _286
REMARK  125  A    between atoms: _288  and  _290
REMARK  126  A    between atoms: _290  and  _291
REMARK  127  A    between atoms: _290  and  _293
REMARK  128  A    between atoms: _296  and  _298
REMARK  129  A    between atoms: _298  and  _299
REMARK  130  A    between atoms: _298  and  _301
REMARK  131  A    between atoms: _301  and  _302
REMARK  132  A    between atoms: _307  and  _308
REMARK  133  A    between atoms: _310  and  _312
REMARK  134  A    between atoms: _312  and  _313
REMARK  135  A    between atoms: _312  and  _315
REMARK  136  A    between atoms: _315  and  _316
REMARK  137  A    between atoms: _316  and  _317
REMARK  138  A    between atoms: _322  and  _324
REMARK  139  A    between atoms: _324  and  _325
REMARK  140  A    between atoms: _324  and  _327
REMARK  141  A    between atoms: _327  and  _328
REMARK  142  A    between atoms: _331  and  _333
REMARK  143  A    between atoms: _333  and  _334
REMARK  144  A    between atoms: _333  and  _336
REMARK  145  A    between atoms: _336  and  _337
REMARK  146  A    between atoms: _339  and  _341
REMARK  147  A    between atoms: _341  and  _342
REMARK  148  A    between atoms: _341  and  _344
REMARK  149  A    between atoms: _344  and  _345
REMARK  150  A    between atoms: _348  and  _350
REMARK  151  A    between atoms: _350  and  _351
REMARK  152  A    between atoms: _350  and  _353
REMARK  153  A    between atoms: _353  and  _354
REMARK  154  A    between atoms: _357  and  _359
REMARK  155  A    between atoms: _359  and  _360
REMARK  156  A    between atoms: _359  and  _362
REMARK  157  A    between atoms: _362  and  _363
REMARK  158  A    between atoms: _363  and  _364
REMARK  159  A    between atoms: _367  and  _369
REMARK  160  A    between atoms: _369  and  _370
REMARK  161  A    between atoms: _369  and  _372
REMARK  162  A    between atoms: _372  and  _373
REMARK  163  A    between atoms: _375  and  _377
REMARK  164  A    between atoms: _377  and  _378
REMARK  165  A    between atoms: _377  and  _380
REMARK  166  A    between atoms: _380  and  _381
REMARK  167  A    between atoms: _384  and  _386
REMARK  168  A    between atoms: _386  and  _387
REMARK  169  A    between atoms: _389  and  _391
REMARK  170  A    between atoms: _391  and  _392
REMARK  171  A    between atoms: _391  and  _394
REMARK  172  A    between atoms: _394  and  _395
REMARK  173  A    between atoms: _398  and  _400
REMARK  174  A    between atoms: _400  and  _401
REMARK  175  A    between atoms: _400  and  _403
REMARK  176  A    between atoms: _403  and  _404
REMARK  177  A    between atoms: _410  and  _412
REMARK  178  A    between atoms: _412  and  _413
REMARK  179  A    between atoms: _412  and  _415
REMARK  180  A    between atoms: _415  and  _416
REMARK  181  A    between atoms: _422  and  _424
REMARK  182  A    between atoms: _424  and  _425
REMARK  183  A    between atoms: _424  and  _427
REMARK  184  A    between atoms: _427  and  _428
REMARK  185  A    between atoms: _431  and  _433
REMARK  186  A    between atoms: _433  and  _434
REMARK  187  A    between atoms: _433  and  _436
REMARK  188  A    between atoms: _436  and  _437
REMARK  189  A    between atoms: _440  and  _442
REMARK  190  A    between atoms: _442  and  _443
REMARK  191  A    between atoms: _442  and  _445
REMARK  192  A    between atoms: _445  and  _446
REMARK  193  A    between atoms: _452  and  _454
REMARK  194  A    between atoms: _454  and  _455
REMARK  195  A    between atoms: _454  and  _457
REMARK  196  A    between atoms: _457  and  _458
REMARK  197  A    between atoms: _463  and  _465
REMARK  198  A    between atoms: _465  and  _466
REMARK  199  A    between atoms: _465  and  _468
REMARK  200  A    between atoms: _468  and  _469
REMARK  201  A    between atoms: _469  and  _470
REMARK  202  A    between atoms: _473  and  _474
REMARK  203  A    between atoms: _479  and  _481
REMARK  204  A    between atoms: _481  and  _482
REMARK  205  A    between atoms: _484  and  _486
REMARK  206  A    between atoms: _486  and  _487
REMARK  207  A    between atoms: _490  and  _492
REMARK  208  A    between atoms: _492  and  _493
REMARK  209  A    between atoms: _492  and  _495
REMARK  210  A    between atoms: _495  and  _496
REMARK  211  A    between atoms: _499  and  _501
REMARK  212  A    between atoms: _501  and  _502
REMARK  213  A    between atoms: _504  and  _506
REMARK  214  A    between atoms: _506  and  _507
REMARK  215  A    between atoms: _510  and  _512
REMARK  216  A    between atoms: _512  and  _513
REMARK  217  A    between atoms: _512  and  _515
REMARK  218  A    between atoms: _518  and  _520
REMARK  219  A    between atoms: _520  and  _521
REMARK  220  A    between atoms: _520  and  _523
REMARK  221  A    between atoms: _523  and  _524
REMARK  222  A    between atoms: _527  and  _529
REMARK  223  A    between atoms: _529  and  _530
REMARK  224  A    between atoms: _529  and  _532
REMARK  225  A    between atoms: _532  and  _533
REMARK  226  A    between atoms: _533  and  _534
REMARK  227  A    between atoms: _536  and  _538
REMARK  228  A    between atoms: _538  and  _539
REMARK  229  A    between atoms: _538  and  _541
REMARK  230  A    between atoms: _541  and  _542
REMARK  231  A    between atoms: _547  and  _549
REMARK  232  A    between atoms: _549  and  _550
REMARK  233  A    between atoms: _549  and  _552
REMARK  234  A    between atoms: _552  and  _553
REMARK                            x       y       z     vdW  Elec       q    Type
REMARK                         _______ _______ _______ _____ _____    ______ ____
ROOT
ATOM      1  CG  LYS A   1      29.516 -35.737  14.138  0.00  0.00    -0.000 C 
ENDROOT
BRANCH   1   2
ATOM      2  CB  LYS A   1      28.136 -36.351  14.114  0.00  0.00    +0.025 C 
BRANCH   2   3
ATOM      3  CA  LYS A   1      27.041 -35.381  13.684  0.00  0.00    +0.133 C 
BRANCH   3   4
ATOM      4  N   LYS A   1      26.834 -34.359  14.703  0.00  0.00    -0.239 NA
ATOM      5  H   LYS A   1      26.852 -34.627  15.708  0.00  0.00    +0.142 HD
ENDBRANCH   3   4
BRANCH   3   6
ATOM      6  C   LYS A   1      25.759 -36.158  13.409  0.00  0.00    +0.224 C 
ATOM      7  O   LYS A   1      25.783 -37.193  12.750  0.00  0.00    -0.287 OA
ENDBRANCH   3   6
ENDBRANCH   2   3
ENDBRANCH   1   2
BRANCH   1   8
ATOM      8  CD  LYS A   1      30.560 -36.794  14.419  0.00  0.00    -0.024 C 
BRANCH   8   9
ATOM      9  CE  LYS A   1      30.597 -37.157  15.891  0.00  0.00    -0.086 C 
BRANCH   9  10
ATOM     10  NZ  LYS A   1      31.189 -36.042  16.683  0.00  0.00    +0.380 N 
ATOM     11  HZ1 LYS A   1      31.208 -36.305  17.689  0.00  0.00    -0.089 HD
ATOM     12  HZ2 LYS A   1      30.613 -35.185  16.558  0.00  0.00    -0.089 HD
ATOM     13  HZ3 LYS A   1      32.158 -35.860  16.353  0.00  0.00    -0.089 HD
ENDBRANCH   9  10
ENDBRANCH   8   9
ENDBRANCH   1   8
TORSDOF 7
REMARK  Name = ../refined-set-2016/3ppm/3ppm_pocket.pdb
REMARK  234 active torsions:
REMARK  status: ('A' for Active; 'I' for Inactive)
REMARK    1  A    between atoms: _1  and  _3
REMARK    2  A    between atoms: _3  and  _4
REMARK    3  A    between atoms: _3  and  _6
REMARK    4  A    between atoms: _6  and  _7
REMARK    5  A    between atoms: _7  and  _8
REMARK    6  A    between atoms: _8  and  _9
REMARK    7  A    between atoms: _9  and  _10
REMARK    8  A    between atoms: _14  and  _16
REMARK    9  A    between atoms: _16  and  _17
REMARK   10  A    between atoms: _16  and  _19
REMARK   11  A    between atoms: _19  and  _20
REMARK   12  A    between atoms: _20  and  _21
REMARK   13  A    between atoms: _24  and  _26
REMARK   14  A    between atoms: _26  and  _27
REMARK   15  A    between atoms: _26  and  _29
REMARK   16  A    between atoms: _31  and  _33
REMARK   17  A    between atoms: _33  and  _34
REMARK   18  A    between atoms: _33  and  _36
REMARK   19  A    between atoms: _36  and  _37
REMARK   20  A    between atoms: _43  and  _45
REMARK   21  A    between atoms: _45  and  _46
REMARK   22  A    between atoms: _45  and  _48
REMARK   23  A    between atoms: _48  and  _49
REMARK   24  A    between atoms: _52  and  _54
REMARK   25  A    between atoms: _54  and  _55
REMARK   26  A    between atoms: _54  and  _57
REMARK   27  A    between atoms: _61  and  _62
REMARK   28  A    between atoms: _67  and  _69
REMARK   29  A    between atoms: _69  and  _70
REMARK   30  A    between atoms: _69  and  _72
REMARK   31  A    between atoms: _72  and  _73
REMARK   32  A    between atoms: _75  and  _77
REMARK   33  A    between atoms: _77  and  _78
REMARK   34  A    between atoms: _77  and  _80
REMARK   35  A    between atoms: _80  and  _81
REMARK   36  A    between atoms: _81  and  _82
REMARK   37  A    between atoms: _84  and  _86
REMARK   38  A    between atoms: _86  and  _87
REMARK   39  A    between atoms: _86  and  _89
REMARK   40  A    between atoms: _89  and  _90
REMARK   41  A    between atoms: _96  and  _98
REMARK   42  A    between atoms: _98  and  _99
REMARK   43  A    between atoms: _98  and  _101
REMARK   44  A    between atoms: _101  and  _102
REMARK   45  A    between atoms: _104  and  _106
REMARK   46  A    between atoms: _106  and  _107
REMARK   47  A    between atoms: _106  and  _109
REMARK   48  A    between atoms: _109  and  _110
REMARK   49  A    between atoms: _115  and  _116
REMARK   50  A    between atoms: _118  and  _120
REMARK   51  A    between atoms: _120  and  _121
REMARK   52  A    between atoms: _120  and  _123
REMARK   53  A    between atoms: _123  and  _124
REMARK   54  A    between atoms: _127  and  _129
REMARK   55  A    between atoms: _129  and  _130
REMARK   56  A    between atoms: _132  and  _134
REMARK   57  A    between atoms: _134  and  _135
REMARK   58  A    between atoms: _134  and  _137
REMARK   59  A    between atoms: _137  and  _138
REMARK   60  A    between atoms: _140  and  _142
REMARK   61  A    between atoms: _142  and  _143
REMARK   62  A    between atoms: _142  and  _145
REMARK   63  A    between atoms: _145  and  _146
REMARK   64  A    between atoms: _148  and  _150
REMARK   65  A    between atoms: _150  and  _151
REMARK   66  A    between atoms: _153  and  _155
REMARK   67  A    between atoms: _155  and  _156
REMARK   68  A    between atoms: _155  and  _158
REMARK   69  A    between atoms: _158  and  _159
REMARK   70  A    between atoms: _162  and  _164
REMARK   71  A    between atoms: _164  and  _165
REMARK   72  A    between atoms: _164  and  _167
REMARK   73  A    between atoms: _167  and  _168
REMARK   74  A    between atoms: _171  and  _173
REMARK   75  A    between atoms: _173  and  _174
REMARK   76  A    between atoms: _173  and  _176
REMARK   77  A    between atoms: _176  and  _177
REMARK   78  A    between atoms: _180  and  _182
REMARK   79  A    between atoms: _182  and  _183
REMARK   80  A    between atoms: _185  and  _187
REMARK   81  A    between atoms: _187  and  _188
REMARK   82  A    between atoms: _190  and  _192
REMARK   83  A    between atoms: _192  and  _193
REMARK   84  A    between atoms: _192  and  _195
REMARK   85  A    between atoms: _195  and  _196
REMARK   86  A    between atoms: _198  and  _200
REMARK   87  A    between atoms: _200  and  _201
REMARK   88  A    between atoms: _200  and  _203
REMARK   89  A    between atoms: _203  and  _204
REMARK   90  A    between atoms: _207  and  _209
REMARK   91  A    between atoms: _209  and  _210
REMARK   92  A    between atoms: _209  and  _212
REMARK   93  A    between atoms: _212  and  _213
REMARK   94  A    between atoms: _213  and  _214
REMARK   95  A    between atoms: _214  and  _215
REMARK   96  A    between atoms: _224  and  _226
REMARK   97  A    between atoms: _226  and  _227
REMARK   98  A    between atoms: _226  and  _229
REMARK   99  A    between atoms: _229  and  _230
REMARK  100  A    between atoms: _236  and  _238
REMARK  101  A    between atoms: _238  and  _239
REMARK  102  A    between atoms: _238  and  _241
REMARK  103  A    between atoms: _241  and  _242
REMARK  104  A    between atoms: _242  and  _243
REMARK  105  A    between atoms: _243  and  _244
REMARK  106  A    between atoms: _244  and  _245
REMARK  107  A    between atoms: _249  and  _251
REMARK  108  A    between atoms: _251  and  _252
REMARK  109  A    between atoms: _254  and  _256
REMARK  110  A    between atoms: _256  and  _257
REMARK  111  A    between atoms: _256  and  _259
REMARK  112  A    between atoms: _259  and  _260
REMARK  113  A    between atoms: _263  and  _265
REMARK  114  A    between atoms: _265  and  _266
REMARK  115  A    between atoms: _265  and  _268
REMARK  116  A    between atoms: _268  and  _269
REMARK  117  A    between atoms: _269  and  _270
REMARK  118  A    between atoms: _270  and  _271
REMARK  119  A    between atoms: _271  and  _272
REMARK  120  A    between atoms: _276  and  _278
REMARK  121  A    between atoms: _278  and  _279
REMARK  122  A    between atoms: _281  and  _283
REMARK  123  A    between atoms: _283  and  _284
REMARK  124  A    between atoms: _283  and  _286
REMARK  125  A    between atoms: _288  and  _290
REMARK  126  A    between atoms: _290  and  _291
REMARK  127  A    between atoms: _290  and  _293
REMARK  128  A    between atoms: _296  and  _298
REMARK  129  A    between atoms: _298  and  _299
REMARK  130  A    between atoms: _298  and  _301
REMARK  131  A    between atoms: _301  and  _302
REMARK  132  A    between atoms: _307  and  _308
REMARK  133  A    between atoms: _310  and  _312
REMARK  134  A    between atoms: _312  and  _313
REMARK  135  A    between atoms: _312  and  _315
REMARK  136  A    between atoms: _315  and  _316
REMARK  137  A    between atoms: _316  and  _317
REMARK  138  A    between atoms: _322  and  _324
REMARK  139  A    between atoms: _324  and  _325
REMARK  140  A    between atoms: _324  and  _327
REMARK  141  A    between atoms: _327  and  _328
REMARK  142  A    between atoms: _331  and  _333
REMARK  143  A    between atoms: _333  and  _334
REMARK  144  A    between atoms: _333  and  _336
REMARK  145  A    between atoms: _336  and  _337
REMARK  146  A    between atoms: _339  and  _341
REMARK  147  A    between atoms: _341  and  _342
REMARK  148  A    between atoms: _341  and  _344
REMARK  149  A    between atoms: _344  and  _345
REMARK  150  A    between atoms: _348  and  _350
REMARK  151  A    between atoms: _350  and  _351
REMARK  152  A    between atoms: _350  and  _353
REMARK  153  A    between atoms: _353  and  _354
REMARK  154  A    between atoms: _357  and  _359
REMARK  155  A    between atoms: _359  and  _360
REMARK  156  A    between atoms: _359  and  _362
REMARK  157  A    between atoms: _362  and  _363
REMARK  158  A    between atoms: _363  and  _364
REMARK  159  A    between atoms: _367  and  _369
REMARK  160  A    between atoms: _369  and  _370
REMARK  161  A    between atoms: _369  and  _372
REMARK  162  A    between atoms: _372  and  _373
REMARK  163  A    between atoms: _375  and  _377
REMARK  164  A    between atoms: _377  and  _378
REMARK  165  A    between atoms: _377  and  _380
REMARK  166  A    between atoms: _380  and  _381
REMARK  167  A    between atoms: _384  and  _386
REMARK  168  A    between atoms: _386  and  _387
REMARK  169  A    between atoms: _389  and  _391
REMARK  170  A    between atoms: _391  and  _392
REMARK  171  A    between atoms: _391  and  _394
REMARK  172  A    between atoms: _394  and  _395
REMARK  173  A    between atoms: _398  and  _400
REMARK  174  A    between atoms: _400  and  _401
REMARK  175  A    between atoms: _400  and  _403
REMARK  176  A    between atoms: _403  and  _404
REMARK  177  A    between atoms: _410  and  _412
REMARK  178  A    between atoms: _412  and  _413
REMARK  179  A    between atoms: _412  and  _415
REMARK  180  A    between atoms: _415  and  _416
REMARK  181  A    between atoms: _422  and  _424
REMARK  182  A    between atoms: _424  and  _425
REMARK  183  A    between atoms: _424  and  _427
REMARK  184  A    between atoms: _427  and  _428
REMARK  185  A    between atoms: _431  and  _433
REMARK  186  A    between atoms: _433  and  _434
REMARK  187  A    between atoms: _433  and  _436
REMARK  188  A    between atoms: _436  and  _437
REMARK  189  A    between atoms: _440  and  _442
REMARK  190  A    between atoms: _442  and  _443
REMARK  191  A    between atoms: _442  and  _445
REMARK  192  A    between atoms: _445  and  _446
REMARK  193  A    between atoms: _452  and  _454
REMARK  194  A    between atoms: _454  and  _455
REMARK  195  A    between atoms: _454  and  _457
REMARK  196  A    between atoms: _457  and  _458
REMARK  197  A    between atoms: _463  and  _465
REMARK  198  A    between atoms: _465  and  _466
REMARK  199  A    between atoms: _465  and  _468
REMARK  200  A    between atoms: _468  and  _469
REMARK  201  A    between atoms: _469  and  _470
REMARK  202  A    between atoms: _473  and  _474
REMARK  203  A    between atoms: _479  and  _481
REMARK  204  A    between atoms: _481  and  _482
REMARK  205  A    between atoms: _484  and  _486
REMARK  206  A    between atoms: _486  and  _487
REMARK  207  A    between atoms: _490  and  _492
REMARK  208  A    between atoms: _492  and  _493
REMARK  209  A    between atoms: _492  and  _495
REMARK  210  A    between atoms: _495  and  _496
REMARK  211  A    between atoms: _499  and  _501
REMARK  212  A    between atoms: _501  and  _502
REMARK  213  A    between atoms: _504  and  _506
REMARK  214  A    between atoms: _506  and  _507
REMARK  215  A    between atoms: _510  and  _512
REMARK  216  A    between atoms: _512  and  _513
REMARK  217  A    between atoms: _512  and  _515
REMARK  218  A    between atoms: _518  and  _520
REMARK  219  A    between atoms: _520  and  _521
REMARK  220  A    between atoms: _520  and  _523
REMARK  221  A    between atoms: _523  and  _524
REMARK  222  A    between atoms: _527  and  _529
REMARK  223  A    between atoms: _529  and  _530
REMARK  224  A    between atoms: _529  and  _532
REMARK  225  A    between atoms: _532  and  _533
REMARK  226  A    between atoms: _533  and  _534
REMARK  227  A    between atoms: _536  and  _538
REMARK  228  A    between atoms: _538  and  _539
REMARK  229  A    between atoms: _538  and  _541
REMARK  230  A    between atoms: _541  and  _542
REMARK  231  A    between atoms: _547  and  _549
REMARK  232  A    between atoms: _549  and  _550
REMARK  233  A    between atoms: _549  and  _552
REMARK  234  A    between atoms: _552  and  _553
REMARK                            x       y       z     vdW  Elec       q    Type
REMARK                         _______ _______ _______ _____ _____    ______ ____
ROOT
ATOM      1  C   GLY A   4      29.164 -44.956   7.491  0.00  0.00    +0.243 C 
ATOM      2  N   CYS A   5      30.337 -45.549   7.702  0.00  0.00    -0.296 N 
ATOM      3  H   CYS A   5      31.125 -44.980   8.073  0.00  0.00    +0.150 HD
ATOM      4  O   GLY A   4      28.172 -45.544   7.057  0.00  0.00    -0.273 OA
ENDROOT
BRANCH   2   5
ATOM      5  CA  CYS A   5      30.562 -46.971   7.432  0.00  0.00    +0.160 C 
BRANCH   5   6
ATOM      6  C   CYS A   5      30.604 -47.809   8.690  0.00  0.00    +0.242 C 
ATOM      7  N   VAL A   6      31.059 -47.198   9.776  0.00  0.00    -0.297 N 
ATOM      8  H   VAL A   6      31.283 -46.184   9.721  0.00  0.00    +0.150 HD
ATOM      9  O   CYS A   5      30.261 -48.983   8.670  0.00  0.00    -0.273 OA
BRANCH   7  10
ATOM     10  CA  VAL A   6      31.257 -47.889  11.039  0.00  0.00    +0.149 C 
BRANCH  10  11
ATOM     11  C   VAL A   6      30.545 -47.061  12.088  0.00  0.00    +0.241 C 
ATOM     12  N   TYR A   7      29.819 -47.719  12.972  0.00  0.00    -0.298 N 
ATOM     13  H   TYR A   7      29.756 -48.756  12.928  0.00  0.00    +0.150 HD
ATOM     14  O   VAL A   6      30.661 -45.836  12.103  0.00  0.00    -0.273 OA
BRANCH  12  15
ATOM     15  CA  TYR A   7      29.107 -46.986  14.009  0.00  0.00    +0.141 C 
BRANCH  15  16
ATOM     16  C   TYR A   7      29.499 -47.464  15.399  0.00  0.00    +0.227 C 
ATOM     17  O   TYR A   7      29.785 -48.647  15.600  0.00  0.00    -0.286 OA
ENDBRANCH  15  16
BRANCH  15  18
ATOM     18  CB  TYR A   7      27.602 -47.117  13.799  0.00  0.00    +0.054 C 
BRANCH  18  19
ATOM     19  CG  TYR A   7      27.119 -46.447  12.520  0.00  0.00    -0.020 A 
ATOM     20  CD2 TYR A   7      26.890 -45.077  12.478  0.00  0.00    -0.001 A 
ATOM     21  CE2 TYR A   7      26.448 -44.451  11.309  0.00  0.00    +0.036 A 
ATOM     22  CZ  TYR A   7      26.238 -45.206  10.174  0.00  0.00    +0.134 A 
ATOM     23  CE1 TYR A   7      26.472 -46.572  10.192  0.00  0.00    +0.036 A 
ATOM     24  CD1 TYR A   7      26.911 -47.182  11.363  0.00  0.00    -0.001 A 
BRANCH  22  25
ATOM     25  OH  TYR A   7      25.797 -44.589   9.016  0.00  0.00    -0.506 OA
ATOM     26  HH  TYR A   7      26.463 -44.725   8.297  0.00  0.00    +0.292 HD
ENDBRANCH  22  25
ENDBRANCH  18  19
ENDBRANCH  15  18
ENDBRANCH  12  15
ENDBRANCH  10  11
BRANCH  10  27
ATOM     27  CB  VAL A   6      32.751 -47.944  11.417  0.00  0.00    +0.027 C 
ATOM     28  CG2 VAL A   6      32.936 -48.449  12.846  0.00  0.00    +0.002 C 
ATOM     29  CG1 VAL A   6      33.553 -48.806  10.411  0.00  0.00    +0.002 C 
ENDBRANCH  10  27
ENDBRANCH   7  10
ENDBRANCH   5   6
BRANCH   5  30
ATOM     30  CB  CYS A   5      31.889 -47.165   6.696  0.00  0.00    +0.098 C 
ATOM     31  SG  CYS A   5      31.741 -46.904   4.952  0.00  0.00    -0.080 S 
ENDBRANCH   5  30
ENDBRANCH   2   5
BRANCH   1  32
ATOM     32  CA  GLY A   4      29.095 -43.477   7.807  0.00  0.00    +0.176 C 
BRANCH  32  34
ATOM     33  C   LYS A   3      27.572 -41.765   7.015  0.00  0.00    +0.241 C 
ATOM     34  N   GLY A   4      27.762 -42.925   7.639  0.00  0.00    -0.295 N 
ATOM     35  H   GLY A   4      26.942 -43.445   8.013  0.00  0.00    +0.150 HD
ATOM     36  O   LYS A   3      28.502 -41.105   6.537  0.00  0.00    -0.273 OA
BRANCH  33  37
ATOM     37  CA  LYS A   3      26.134 -41.283   6.898  0.00  0.00    +0.149 C 
BRANCH  37  40
ATOM     38  C   LEU A   2      25.955 -39.588   8.638  0.00  0.00    +0.241 C 
ATOM     39  O   LEU A   2      25.932 -40.429   9.540  0.00  0.00    -0.273 OA
ATOM     40  N   LYS A   3      26.040 -39.907   7.352  0.00  0.00    -0.297 N 
ATOM     41  H   LYS A   3      26.039 -39.144   6.645  0.00  0.00    +0.150 HD
BRANCH  38  42
ATOM     42  CA  LEU A   2      25.877 -38.098   8.950  0.00  0.00    +0.149 C 
BRANCH  42  44
ATOM     43  C   GLY A   1      23.517 -37.786   9.336  0.00  0.00    +0.240 C 
ATOM     44  N   LEU A   2      24.745 -37.852   9.834  0.00  0.00    -0.297 N 
ATOM     45  H   LEU A   2      24.900 -37.728  10.855  0.00  0.00    +0.150 HD
ATOM     46  O   GLY A   1      23.308 -37.769   8.120  0.00  0.00    -0.274 OA
BRANCH  43  47
ATOM     47  CA  GLY A   1      22.365 -37.713  10.329  0.00  0.00    +0.169 C 
BRANCH  47  48
ATOM     48  N   GLY A   1      22.752 -37.588  11.729  0.00  0.00    -0.236 NA
ATOM     49  H   GLY A   1      22.836 -38.444  12.314  0.00  0.00    +0.142 HD
ENDBRANCH  47  48
ENDBRANCH  43  47
ENDBRANCH  42  44
BRANCH  42  50
ATOM     50  CB  LEU A   2      27.193 -37.616   9.578  0.00  0.00    +0.029 C 
BRANCH  50  51
ATOM     51  CG  LEU A   2      27.612 -36.171   9.309  0.00  0.00    +0.002 C 
ATOM     52  CD2 LEU A   2      28.835 -35.826  10.155  0.00  0.00    +0.000 C 
ATOM     53  CD1 LEU A   2      26.472 -35.198   9.567  0.00  0.00    +0.000 C 
ENDBRANCH  50  51
ENDBRANCH  42  50
ENDBRANCH  38  42
ENDBRANCH  37  40
BRANCH  37  54
ATOM     54  CB  LYS A   3      25.677 -41.371   5.437  0.00  0.00    +0.029 C 
BRANCH  54  55
ATOM     55  CG  LYS A   3      25.670 -42.778   4.851  0.00  0.00    +0.000 C 
BRANCH  55  56
ATOM     56  CD  LYS A   3      24.585 -43.628   5.494  0.00  0.00    -0.024 C 
BRANCH  56  57
ATOM     57  CE  LYS A   3      24.206 -44.821   4.628  0.00  0.00    -0.086 C 
BRANCH  57  58
ATOM     58  NZ  LYS A   3      23.266 -44.429   3.532  0.00  0.00    +0.380 N 
ATOM     59  HZ1 LYS A   3      22.398 -44.034   3.946  0.00  0.00    -0.089 HD
ATOM     60  HZ2 LYS A   3      23.030 -45.267   2.963  0.00  0.00    -0.089 HD
ATOM     61  HZ3 LYS A   3      23.719 -43.714   2.927  0.00  0.00    -0.089 HD
ENDBRANCH  57  58
ENDBRANCH  56  57
ENDBRANCH  55  56
ENDBRANCH  54  55
ENDBRANCH  37  54
ENDBRANCH  33  37
ENDBRANCH  32  34
ENDBRANCH   1  32
TORSDOF 26
REMARK  Name = ../refined-set-2016/3ppm/3ppm_pocket.pdb
REMARK  234 active torsions:
REMARK  status: ('A' for Active; 'I' for Inactive)
REMARK    1  A    between atoms: _1  and  _3
REMARK    2  A    between atoms: _3  and  _4
REMARK    3  A    between atoms: _3  and  _6
REMARK    4  A    between atoms: _6  and  _7
REMARK    5  A    between atoms: _7  and  _8
REMARK    6  A    between atoms: _8  and  _9
REMARK    7  A    between atoms: _9  and  _10
REMARK    8  A    between atoms: _14  and  _16
REMARK    9  A    between atoms: _16  and  _17
REMARK   10  A    between atoms: _16  and  _19
REMARK   11  A    between atoms: _19  and  _20
REMARK   12  A    between atoms: _20  and  _21
REMARK   13  A    between atoms: _24  and  _26
REMARK   14  A    between atoms: _26  and  _27
REMARK   15  A    between atoms: _26  and  _29
REMARK   16  A    between atoms: _31  and  _33
REMARK   17  A    between atoms: _33  and  _34
REMARK   18  A    between atoms: _33  and  _36
REMARK   19  A    between atoms: _36  and  _37
REMARK   20  A    between atoms: _43  and  _45
REMARK   21  A    between atoms: _45  and  _46
REMARK   22  A    between atoms: _45  and  _48
REMARK   23  A    between atoms: _48  and  _49
REMARK   24  A    between atoms: _52  and  _54
REMARK   25  A    between atoms: _54  and  _55
REMARK   26  A    between atoms: _54  and  _57
REMARK   27  A    between atoms: _61  and  _62
REMARK   28  A    between atoms: _67  and  _69
REMARK   29  A    between atoms: _69  and  _70
REMARK   30  A    between atoms: _69  and  _72
REMARK   31  A    between atoms: _72  and  _73
REMARK   32  A    between atoms: _75  and  _77
REMARK   33  A    between atoms: _77  and  _78
REMARK   34  A    between atoms: _77  and  _80
REMARK   35  A    between atoms: _80  and  _81
REMARK   36  A    between atoms: _81  and  _82
REMARK   37  A    between atoms: _84  and  _86
REMARK   38  A    between atoms: _86  and  _87
REMARK   39  A    between atoms: _86  and  _89
REMARK   40  A    between atoms: _89  and  _90
REMARK   41  A    between atoms: _96  and  _98
REMARK   42  A    between atoms: _98  and  _99
REMARK   43  A    between atoms: _98  and  _101
REMARK   44  A    between atoms: _101  and  _102
REMARK   45  A    between atoms: _104  and  _106
REMARK   46  A    between atoms: _106  and  _107
REMARK   47  A    between atoms: _106  and  _109
REMARK   48  A    between atoms: _109  and  _110
REMARK   49  A    between atoms: _115  and  _116
REMARK   50  A    between atoms: _118  and  _120
REMARK   51  A    between atoms: _120  and  _121
REMARK   52  A    between atoms: _120  and  _123
REMARK   53  A    between atoms: _123  and  _124
REMARK   54  A    between atoms: _127  and  _129
REMARK   55  A    between atoms: _129  and  _130
REMARK   56  A    between atoms: _132  and  _134
REMARK   57  A    between atoms: _134  and  _135
REMARK   58  A    between atoms: _134  and  _137
REMARK   59  A    between atoms: _137  and  _138
REMARK   60  A    between atoms: _140  and  _142
REMARK   61  A    between atoms: _142  and  _143
REMARK   62  A    between atoms: _142  and  _145
REMARK   63  A    between atoms: _145  and  _146
REMARK   64  A    between atoms: _148  and  _150
REMARK   65  A    between atoms: _150  and  _151
REMARK   66  A    between atoms: _153  and  _155
REMARK   67  A    between atoms: _155  and  _156
REMARK   68  A    between atoms: _155  and  _158
REMARK   69  A    between atoms: _158  and  _159
REMARK   70  A    between atoms: _162  and  _164
REMARK   71  A    between atoms: _164  and  _165
REMARK   72  A    between atoms: _164  and  _167
REMARK   73  A    between atoms: _167  and  _168
REMARK   74  A    between atoms: _171  and  _173
REMARK   75  A    between atoms: _173  and  _174
REMARK   76  A    between atoms: _173  and  _176
REMARK   77  A    between atoms: _176  and  _177
REMARK   78  A    between atoms: _180  and  _182
REMARK   79  A    between atoms: _182  and  _183
REMARK   80  A    between atoms: _185  and  _187
REMARK   81  A    between atoms: _187  and  _188
REMARK   82  A    between atoms: _190  and  _192
REMARK   83  A    between atoms: _192  and  _193
REMARK   84  A    between atoms: _192  and  _195
REMARK   85  A    between atoms: _195  and  _196
REMARK   86  A    between atoms: _198  and  _200
REMARK   87  A    between atoms: _200  and  _201
REMARK   88  A    between atoms: _200  and  _203
REMARK   89  A    between atoms: _203  and  _204
REMARK   90  A    between atoms: _207  and  _209
REMARK   91  A    between atoms: _209  and  _210
REMARK   92  A    between atoms: _209  and  _212
REMARK   93  A    between atoms: _212  and  _213
REMARK   94  A    between atoms: _213  and  _214
REMARK   95  A    between atoms: _214  and  _215
REMARK   96  A    between atoms: _224  and  _226
REMARK   97  A    between atoms: _226  and  _227
REMARK   98  A    between atoms: _226  and  _229
REMARK   99  A    between atoms: _229  and  _230
REMARK  100  A    between atoms: _236  and  _238
REMARK  101  A    between atoms: _238  and  _239
REMARK  102  A    between atoms: _238  and  _241
REMARK  103  A    between atoms: _241  and  _242
REMARK  104  A    between atoms: _242  and  _243
REMARK  105  A    between atoms: _243  and  _244
REMARK  106  A    between atoms: _244  and  _245
REMARK  107  A    between atoms: _249  and  _251
REMARK  108  A    between atoms: _251  and  _252
REMARK  109  A    between atoms: _254  and  _256
REMARK  110  A    between atoms: _256  and  _257
REMARK  111  A    between atoms: _256  and  _259
REMARK  112  A    between atoms: _259  and  _260
REMARK  113  A    between atoms: _263  and  _265
REMARK  114  A    between atoms: _265  and  _266
REMARK  115  A    between atoms: _265  and  _268
REMARK  116  A    between atoms: _268  and  _269
REMARK  117  A    between atoms: _269  and  _270
REMARK  118  A    between atoms: _270  and  _271
REMARK  119  A    between atoms: _271  and  _272
REMARK  120  A    between atoms: _276  and  _278
REMARK  121  A    between atoms: _278  and  _279
REMARK  122  A    between atoms: _281  and  _283
REMARK  123  A    between atoms: _283  and  _284
REMARK  124  A    between atoms: _283  and  _286
REMARK  125  A    between atoms: _288  and  _290
REMARK  126  A    between atoms: _290  and  _291
REMARK  127  A    between atoms: _290  and  _293
REMARK  128  A    between atoms: _296  and  _298
REMARK  129  A    between atoms: _298  and  _299
REMARK  130  A    between atoms: _298  and  _301
REMARK  131  A    between atoms: _301  and  _302
REMARK  132  A    between atoms: _307  and  _308
REMARK  133  A    between atoms: _310  and  _312
REMARK  134  A    between atoms: _312  and  _313
REMARK  135  A    between atoms: _312  and  _315
REMARK  136  A    between atoms: _315  and  _316
REMARK  137  A    between atoms: _316  and  _317
REMARK  138  A    between atoms: _322  and  _324
REMARK  139  A    between atoms: _324  and  _325
REMARK  140  A    between atoms: _324  and  _327
REMARK  141  A    between atoms: _327  and  _328
REMARK  142  A    between atoms: _331  and  _333
REMARK  143  A    between atoms: _333  and  _334
REMARK  144  A    between atoms: _333  and  _336
REMARK  145  A    between atoms: _336  and  _337
REMARK  146  A    between atoms: _339  and  _341
REMARK  147  A    between atoms: _341  and  _342
REMARK  148  A    between atoms: _341  and  _344
REMARK  149  A    between atoms: _344  and  _345
REMARK  150  A    between atoms: _348  and  _350
REMARK  151  A    between atoms: _350  and  _351
REMARK  152  A    between atoms: _350  and  _353
REMARK  153  A    between atoms: _353  and  _354
REMARK  154  A    between atoms: _357  and  _359
REMARK  155  A    between atoms: _359  and  _360
REMARK  156  A    between atoms: _359  and  _362
REMARK  157  A    between atoms: _362  and  _363
REMARK  158  A    between atoms: _363  and  _364
REMARK  159  A    between atoms: _367  and  _369
REMARK  160  A    between atoms: _369  and  _370
REMARK  161  A    between atoms: _369  and  _372
REMARK  162  A    between atoms: _372  and  _373
REMARK  163  A    between atoms: _375  and  _377
REMARK  164  A    between atoms: _377  and  _378
REMARK  165  A    between atoms: _377  and  _380
REMARK  166  A    between atoms: _380  and  _381
REMARK  167  A    between atoms: _384  and  _386
REMARK  168  A    between atoms: _386  and  _387
REMARK  169  A    between atoms: _389  and  _391
REMARK  170  A    between atoms: _391  and  _392
REMARK  171  A    between atoms: _391  and  _394
REMARK  172  A    between atoms: _394  and  _395
REMARK  173  A    between atoms: _398  and  _400
REMARK  174  A    between atoms: _400  and  _401
REMARK  175  A    between atoms: _400  and  _403
REMARK  176  A    between atoms: _403  and  _404
REMARK  177  A    between atoms: _410  and  _412
REMARK  178  A    between atoms: _412  and  _413
REMARK  179  A    between atoms: _412  and  _415
REMARK  180  A    between atoms: _415  and  _416
REMARK  181  A    between atoms: _422  and  _424
REMARK  182  A    between atoms: _424  and  _425
REMARK  183  A    between atoms: _424  and  _427
REMARK  184  A    between atoms: _427  and  _428
REMARK  185  A    between atoms: _431  and  _433
REMARK  186  A    between atoms: _433  and  _434
REMARK  187  A    between atoms: _433  and  _436
REMARK  188  A    between atoms: _436  and  _437
REMARK  189  A    between atoms: _440  and  _442
REMARK  190  A    between atoms: _442  and  _443
REMARK  191  A    between atoms: _442  and  _445
REMARK  192  A    between atoms: _445  and  _446
REMARK  193  A    between atoms: _452  and  _454
REMARK  194  A    between atoms: _454  and  _455
REMARK  195  A    between atoms: _454  and  _457
REMARK  196  A    between atoms: _457  and  _458
REMARK  197  A    between atoms: _463  and  _465
REMARK  198  A    between atoms: _465  and  _466
REMARK  199  A    between atoms: _465  and  _468
REMARK  200  A    between atoms: _468  and  _469
REMARK  201  A    between atoms: _469  and  _470
REMARK  202  A    between atoms: _473  and  _474
REMARK  203  A    between atoms: _479  and  _481
REMARK  204  A    between atoms: _481  and  _482
REMARK  205  A    between atoms: _484  and  _486
REMARK  206  A    between atoms: _486  and  _487
REMARK  207  A    between atoms: _490  and  _492
REMARK  208  A    between atoms: _492  and  _493
REMARK  209  A    between atoms: _492  and  _495
REMARK  210  A    between atoms: _495  and  _496
REMARK  211  A    between atoms: _499  and  _501
REMARK  212  A    between atoms: _501  and  _502
REMARK  213  A    between atoms: _504  and  _506
REMARK  214  A    between atoms: _506  and  _507
REMARK  215  A    between atoms: _510  and  _512
REMARK  216  A    between atoms: _512  and  _513
REMARK  217  A    between atoms: _512  and  _515
REMARK  218  A    between atoms: _518  and  _520
REMARK  219  A    between atoms: _520  and  _521
REMARK  220  A    between atoms: _520  and  _523
REMARK  221  A    between atoms: _523  and  _524
REMARK  222  A    between atoms: _527  and  _529
REMARK  223  A    between atoms: _529  and  _530
REMARK  224  A    between atoms: _529  and  _532
REMARK  225  A    between atoms: _532  and  _533
REMARK  226  A    between atoms: _533  and  _534
REMARK  227  A    between atoms: _536  and  _538
REMARK  228  A    between atoms: _538  and  _539
REMARK  229  A    between atoms: _538  and  _541
REMARK  230  A    between atoms: _541  and  _542
REMARK  231  A    between atoms: _547  and  _549
REMARK  232  A    between atoms: _549  and  _550
REMARK  233  A    between atoms: _549  and  _552
REMARK  234  A    between atoms: _552  and  _553
REMARK                            x       y       z     vdW  Elec       q    Type
REMARK                         _______ _______ _______ _____ _____    ______ ____
ROOT
ATOM      1  CB  GLN A   1      34.382 -46.589  16.101  0.00  0.00    +0.035 C 
ENDROOT
BRANCH   1   2
ATOM      2  CA  GLN A   1      33.571 -46.355  17.392  0.00  0.00    +0.134 C 
BRANCH   2   3
ATOM      3  N   GLN A   1      32.146 -46.486  17.116  0.00  0.00    -0.239 NA
ATOM      4  H   GLN A   1      31.785 -46.286  16.162  0.00  0.00    +0.142 HD
ENDBRANCH   2   3
BRANCH   2   5
ATOM      5  C   GLN A   1      33.782 -44.955  17.960  0.00  0.00    +0.224 C 
ATOM      6  O   GLN A   1      33.550 -43.961  17.272  0.00  0.00    -0.287 OA
ENDBRANCH   2   5
ENDBRANCH   1   2
BRANCH   1   7
ATOM      7  CG  GLN A   1      35.915 -46.647  16.280  0.00  0.00    +0.087 C 
BRANCH   7   8
ATOM      8  CD  GLN A   1      36.558 -45.280  16.493  0.00  0.00    +0.219 C 
ATOM      9  OE1 GLN A   1      37.039 -44.969  17.580  0.00  0.00    -0.275 OA
ATOM     10  NE2 GLN A   1      36.587 -44.467  15.443  0.00  0.00    -0.329 N 
ATOM     11 HE21 GLN A   1      37.028 -43.529  15.524  0.00  0.00    +0.145 HD
ATOM     12 HE22 GLN A   1      36.168 -44.769  14.540  0.00  0.00    +0.145 HD
ENDBRANCH   7   8
ENDBRANCH   1   7
TORSDOF 5
REMARK  Name = ../refined-set-2016/3ppm/3ppm_pocket.pdb
REMARK  234 active torsions:
REMARK  status: ('A' for Active; 'I' for Inactive)
REMARK    1  A    between atoms: _1  and  _3
REMARK    2  A    between atoms: _3  and  _4
REMARK    3  A    between atoms: _3  and  _6
REMARK    4  A    between atoms: _6  and  _7
REMARK    5  A    between atoms: _7  and  _8
REMARK    6  A    between atoms: _8  and  _9
REMARK    7  A    between atoms: _9  and  _10
REMARK    8  A    between atoms: _14  and  _16
REMARK    9  A    between atoms: _16  and  _17
REMARK   10  A    between atoms: _16  and  _19
REMARK   11  A    between atoms: _19  and  _20
REMARK   12  A    between atoms: _20  and  _21
REMARK   13  A    between atoms: _24  and  _26
REMARK   14  A    between atoms: _26  and  _27
REMARK   15  A    between atoms: _26  and  _29
REMARK   16  A    between atoms: _31  and  _33
REMARK   17  A    between atoms: _33  and  _34
REMARK   18  A    between atoms: _33  and  _36
REMARK   19  A    between atoms: _36  and  _37
REMARK   20  A    between atoms: _43  and  _45
REMARK   21  A    between atoms: _45  and  _46
REMARK   22  A    between atoms: _45  and  _48
REMARK   23  A    between atoms: _48  and  _49
REMARK   24  A    between atoms: _52  and  _54
REMARK   25  A    between atoms: _54  and  _55
REMARK   26  A    between atoms: _54  and  _57
REMARK   27  A    between atoms: _61  and  _62
REMARK   28  A    between atoms: _67  and  _69
REMARK   29  A    between atoms: _69  and  _70
REMARK   30  A    between atoms: _69  and  _72
REMARK   31  A    between atoms: _72  and  _73
REMARK   32  A    between atoms: _75  and  _77
REMARK   33  A    between atoms: _77  and  _78
REMARK   34  A    between atoms: _77  and  _80
REMARK   35  A    between atoms: _80  and  _81
REMARK   36  A    between atoms: _81  and  _82
REMARK   37  A    between atoms: _84  and  _86
REMARK   38  A    between atoms: _86  and  _87
REMARK   39  A    between atoms: _86  and  _89
REMARK   40  A    between atoms: _89  and  _90
REMARK   41  A    between atoms: _96  and  _98
REMARK   42  A    between atoms: _98  and  _99
REMARK   43  A    between atoms: _98  and  _101
REMARK   44  A    between atoms: _101  and  _102
REMARK   45  A    between atoms: _104  and  _106
REMARK   46  A    between atoms: _106  and  _107
REMARK   47  A    between atoms: _106  and  _109
REMARK   48  A    between atoms: _109  and  _110
REMARK   49  A    between atoms: _115  and  _116
REMARK   50  A    between atoms: _118  and  _120
REMARK   51  A    between atoms: _120  and  _121
REMARK   52  A    between atoms: _120  and  _123
REMARK   53  A    between atoms: _123  and  _124
REMARK   54  A    between atoms: _127  and  _129
REMARK   55  A    between atoms: _129  and  _130
REMARK   56  A    between atoms: _132  and  _134
REMARK   57  A    between atoms: _134  and  _135
REMARK   58  A    between atoms: _134  and  _137
REMARK   59  A    between atoms: _137  and  _138
REMARK   60  A    between atoms: _140  and  _142
REMARK   61  A    between atoms: _142  and  _143
REMARK   62  A    between atoms: _142  and  _145
REMARK   63  A    between atoms: _145  and  _146
REMARK   64  A    between atoms: _148  and  _150
REMARK   65  A    between atoms: _150  and  _151
REMARK   66  A    between atoms: _153  and  _155
REMARK   67  A    between atoms: _155  and  _156
REMARK   68  A    between atoms: _155  and  _158
REMARK   69  A    between atoms: _158  and  _159
REMARK   70  A    between atoms: _162  and  _164
REMARK   71  A    between atoms: _164  and  _165
REMARK   72  A    between atoms: _164  and  _167
REMARK   73  A    between atoms: _167  and  _168
REMARK   74  A    between atoms: _171  and  _173
REMARK   75  A    between atoms: _173  and  _174
REMARK   76  A    between atoms: _173  and  _176
REMARK   77  A    between atoms: _176  and  _177
REMARK   78  A    between atoms: _180  and  _182
REMARK   79  A    between atoms: _182  and  _183
REMARK   80  A    between atoms: _185  and  _187
REMARK   81  A    between atoms: _187  and  _188
REMARK   82  A    between atoms: _190  and  _192
REMARK   83  A    between atoms: _192  and  _193
REMARK   84  A    between atoms: _192  and  _195
REMARK   85  A    between atoms: _195  and  _196
REMARK   86  A    between atoms: _198  and  _200
REMARK   87  A    between atoms: _200  and  _201
REMARK   88  A    between atoms: _200  and  _203
REMARK   89  A    between atoms: _203  and  _204
REMARK   90  A    between atoms: _207  and  _209
REMARK   91  A    between atoms: _209  and  _210
REMARK   92  A    between atoms: _209  and  _212
REMARK   93  A    between atoms: _212  and  _213
REMARK   94  A    between atoms: _213  and  _214
REMARK   95  A    between atoms: _214  and  _215
REMARK   96  A    between atoms: _224  and  _226
REMARK   97  A    between atoms: _226  and  _227
REMARK   98  A    between atoms: _226  and  _229
REMARK   99  A    between atoms: _229  and  _230
REMARK  100  A    between atoms: _236  and  _238
REMARK  101  A    between atoms: _238  and  _239
REMARK  102  A    between atoms: _238  and  _241
REMARK  103  A    between atoms: _241  and  _242
REMARK  104  A    between atoms: _242  and  _243
REMARK  105  A    between atoms: _243  and  _244
REMARK  106  A    between atoms: _244  and  _245
REMARK  107  A    between atoms: _249  and  _251
REMARK  108  A    between atoms: _251  and  _252
REMARK  109  A    between atoms: _254  and  _256
REMARK  110  A    between atoms: _256  and  _257
REMARK  111  A    between atoms: _256  and  _259
REMARK  112  A    between atoms: _259  and  _260
REMARK  113  A    between atoms: _263  and  _265
REMARK  114  A    between atoms: _265  and  _266
REMARK  115  A    between atoms: _265  and  _268
REMARK  116  A    between atoms: _268  and  _269
REMARK  117  A    between atoms: _269  and  _270
REMARK  118  A    between atoms: _270  and  _271
REMARK  119  A    between atoms: _271  and  _272
REMARK  120  A    between atoms: _276  and  _278
REMARK  121  A    between atoms: _278  and  _279
REMARK  122  A    between atoms: _281  and  _283
REMARK  123  A    between atoms: _283  and  _284
REMARK  124  A    between atoms: _283  and  _286
REMARK  125  A    between atoms: _288  and  _290
REMARK  126  A    between atoms: _290  and  _291
REMARK  127  A    between atoms: _290  and  _293
REMARK  128  A    between atoms: _296  and  _298
REMARK  129  A    between atoms: _298  and  _299
REMARK  130  A    between atoms: _298  and  _301
REMARK  131  A    between atoms: _301  and  _302
REMARK  132  A    between atoms: _307  and  _308
REMARK  133  A    between atoms: _310  and  _312
REMARK  134  A    between atoms: _312  and  _313
REMARK  135  A    between atoms: _312  and  _315
REMARK  136  A    between atoms: _315  and  _316
REMARK  137  A    between atoms: _316  and  _317
REMARK  138  A    between atoms: _322  and  _324
REMARK  139  A    between atoms: _324  and  _325
REMARK  140  A    between atoms: _324  and  _327
REMARK  141  A    between atoms: _327  and  _328
REMARK  142  A    between atoms: _331  and  _333
REMARK  143  A    between atoms: _333  and  _334
REMARK  144  A    between atoms: _333  and  _336
REMARK  145  A    between atoms: _336  and  _337
REMARK  146  A    between atoms: _339  and  _341
REMARK  147  A    between atoms: _341  and  _342
REMARK  148  A    between atoms: _341  and  _344
REMARK  149  A    between atoms: _344  and  _345
REMARK  150  A    between atoms: _348  and  _350
REMARK  151  A    between atoms: _350  and  _351
REMARK  152  A    between atoms: _350  and  _353
REMARK  153  A    between atoms: _353  and  _354
REMARK  154  A    between atoms: _357  and  _359
REMARK  155  A    between atoms: _359  and  _360
REMARK  156  A    between atoms: _359  and  _362
REMARK  157  A    between atoms: _362  and  _363
REMARK  158  A    between atoms: _363  and  _364
REMARK  159  A    between atoms: _367  and  _369
REMARK  160  A    between atoms: _369  and  _370
REMARK  161  A    between atoms: _369  and  _372
REMARK  162  A    between atoms: _372  and  _373
REMARK  163  A    between atoms: _375  and  _377
REMARK  164  A    between atoms: _377  and  _378
REMARK  165  A    between atoms: _377  and  _380
REMARK  166  A    between atoms: _380  and  _381
REMARK  167  A    between atoms: _384  and  _386
REMARK  168  A    between atoms: _386  and  _387
REMARK  169  A    between atoms: _389  and  _391
REMARK  170  A    between atoms: _391  and  _392
REMARK  171  A    between atoms: _391  and  _394
REMARK  172  A    between atoms: _394  and  _395
REMARK  173  A    between atoms: _398  and  _400
REMARK  174  A    between atoms: _400  and  _401
REMARK  175  A    between atoms: _400  and  _403
REMARK  176  A    between atoms: _403  and  _404
REMARK  177  A    between atoms: _410  and  _412
REMARK  178  A    between atoms: _412  and  _413
REMARK  179  A    between atoms: _412  and  _415
REMARK  180  A    between atoms: _415  and  _416
REMARK  181  A    between atoms: _422  and  _424
REMARK  182  A    between atoms: _424  and  _425
REMARK  183  A    between atoms: _424  and  _427
REMARK  184  A    between atoms: _427  and  _428
REMARK  185  A    between atoms: _431  and  _433
REMARK  186  A    between atoms: _433  and  _434
REMARK  187  A    between atoms: _433  and  _436
REMARK  188  A    between atoms: _436  and  _437
REMARK  189  A    between atoms: _440  and  _442
REMARK  190  A    between atoms: _442  and  _443
REMARK  191  A    between atoms: _442  and  _445
REMARK  192  A    between atoms: _445  and  _446
REMARK  193  A    between atoms: _452  and  _454
REMARK  194  A    between atoms: _454  and  _455
REMARK  195  A    between atoms: _454  and  _457
REMARK  196  A    between atoms: _457  and  _458
REMARK  197  A    between atoms: _463  and  _465
REMARK  198  A    between atoms: _465  and  _466
REMARK  199  A    between atoms: _465  and  _468
REMARK  200  A    between atoms: _468  and  _469
REMARK  201  A    between atoms: _469  and  _470
REMARK  202  A    between atoms: _473  and  _474
REMARK  203  A    between atoms: _479  and  _481
REMARK  204  A    between atoms: _481  and  _482
REMARK  205  A    between atoms: _484  and  _486
REMARK  206  A    between atoms: _486  and  _487
REMARK  207  A    between atoms: _490  and  _492
REMARK  208  A    between atoms: _492  and  _493
REMARK  209  A    between atoms: _492  and  _495
REMARK  210  A    between atoms: _495  and  _496
REMARK  211  A    between atoms: _499  and  _501
REMARK  212  A    between atoms: _501  and  _502
REMARK  213  A    between atoms: _504  and  _506
REMARK  214  A    between atoms: _506  and  _507
REMARK  215  A    between atoms: _510  and  _512
REMARK  216  A    between atoms: _512  and  _513
REMARK  217  A    between atoms: _512  and  _515
REMARK  218  A    between atoms: _518  and  _520
REMARK  219  A    between atoms: _520  and  _521
REMARK  220  A    between atoms: _520  and  _523
REMARK  221  A    between atoms: _523  and  _524
REMARK  222  A    between atoms: _527  and  _529
REMARK  223  A    between atoms: _529  and  _530
REMARK  224  A    between atoms: _529  and  _532
REMARK  225  A    between atoms: _532  and  _533
REMARK  226  A    between atoms: _533  and  _534
REMARK  227  A    between atoms: _536  and  _538
REMARK  228  A    between atoms: _538  and  _539
REMARK  229  A    between atoms: _538  and  _541
REMARK  230  A    between atoms: _541  and  _542
REMARK  231  A    between atoms: _547  and  _549
REMARK  232  A    between atoms: _549  and  _550
REMARK  233  A    between atoms: _549  and  _552
REMARK  234  A    between atoms: _552  and  _553
REMARK                            x       y       z     vdW  Elec       q    Type
REMARK                         _______ _______ _______ _____ _____    ______ ____
ROOT
ATOM      1  CA  SER A   2      34.502 -34.215  13.335  0.00  0.00    +0.178 C 
ENDROOT
BRANCH   1   4
ATOM      2  C   LEU A   1      34.391 -36.479  14.126  0.00  0.00    +0.238 C 
ATOM      3  O   LEU A   1      33.767 -36.113  15.131  0.00  0.00    -0.274 OA
ATOM      4  N   SER A   2      34.834 -35.621  13.216  0.00  0.00    -0.295 N 
ATOM      5  H   SER A   2      35.416 -35.955  12.422  0.00  0.00    +0.150 HD
BRANCH   2   6
ATOM      6  CA  LEU A   1      34.689 -37.958  13.882  0.00  0.00    +0.145 C 
BRANCH   6   7
ATOM      7  N   LEU A   1      34.860 -38.630  15.156  0.00  0.00    -0.238 NA
ATOM      8  H   LEU A   1      34.070 -39.187  15.541  0.00  0.00    +0.142 HD
ENDBRANCH   6   7
BRANCH   6   9
ATOM      9  CB  LEU A   1      33.518 -38.592  13.137  0.00  0.00    +0.026 C 
BRANCH   9  10
ATOM     10  CG  LEU A   1      33.139 -37.945  11.816  0.00  0.00    +0.002 C 
ATOM     11  CD2 LEU A   1      31.791 -38.475  11.357  0.00  0.00    +0.000 C 
ATOM     12  CD1 LEU A   1      34.223 -38.228  10.793  0.00  0.00    +0.000 C 
ENDBRANCH   9  10
ENDBRANCH   6   9
ENDBRANCH   2   6
ENDBRANCH   1   4
BRANCH   1  13
ATOM     13  C   SER A   2      33.978 -33.715  11.997  0.00  0.00    +0.243 C 
ATOM     14  N   LEU A   3      33.171 -32.663  12.014  0.00  0.00    -0.298 N 
ATOM     15  H   LEU A   3      32.851 -32.280  12.926  0.00  0.00    +0.150 HD
ATOM     16  O   SER A   2      34.279 -34.296  10.970  0.00  0.00    -0.273 OA
BRANCH  14  17
ATOM     17  CA  LEU A   3      32.723 -32.032  10.775  0.00  0.00    +0.137 C 
BRANCH  17  18
ATOM     18  C   LEU A   3      33.072 -30.560  10.835  0.00  0.00    +0.227 C 
ATOM     19  O   LEU A   3      33.177 -29.985  11.918  0.00  0.00    -0.286 OA
ENDBRANCH  17  18
BRANCH  17  20
ATOM     20  CB  LEU A   3      31.215 -32.214  10.568  0.00  0.00    +0.028 C 
BRANCH  20  21
ATOM     21  CG  LEU A   3      30.253 -31.292  11.328  0.00  0.00    +0.002 C 
ATOM     22  CD2 LEU A   3      28.964 -32.030  11.624  0.00  0.00    +0.000 C 
ATOM     23  CD1 LEU A   3      29.950 -30.028  10.529  0.00  0.00    +0.000 C 
ENDBRANCH  20  21
ENDBRANCH  17  20
ENDBRANCH  14  17
ENDBRANCH   1  13
BRANCH   1  24
ATOM     24  CB  SER A   2      35.746 -33.425  13.753  0.00  0.00    +0.166 C 
BRANCH  24  25
ATOM     25  OG  SER A   2      35.409 -32.075  13.995  0.00  0.00    -0.380 OA
ATOM     26  H   SER A   2      36.221 -31.576  14.264  0.00  0.00    +0.211 HD
ENDBRANCH  24  25
ENDBRANCH   1  24
TORSDOF 12
REMARK  Name = ../refined-set-2016/3ppm/3ppm_pocket.pdb
REMARK  234 active torsions:
REMARK  status: ('A' for Active; 'I' for Inactive)
REMARK    1  A    between atoms: _1  and  _3
REMARK    2  A    between atoms: _3  and  _4
REMARK    3  A    between atoms: _3  and  _6
REMARK    4  A    between atoms: _6  and  _7
REMARK    5  A    between atoms: _7  and  _8
REMARK    6  A    between atoms: _8  and  _9
REMARK    7  A    between atoms: _9  and  _10
REMARK    8  A    between atoms: _14  and  _16
REMARK    9  A    between atoms: _16  and  _17
REMARK   10  A    between atoms: _16  and  _19
REMARK   11  A    between atoms: _19  and  _20
REMARK   12  A    between atoms: _20  and  _21
REMARK   13  A    between atoms: _24  and  _26
REMARK   14  A    between atoms: _26  and  _27
REMARK   15  A    between atoms: _26  and  _29
REMARK   16  A    between atoms: _31  and  _33
REMARK   17  A    between atoms: _33  and  _34
REMARK   18  A    between atoms: _33  and  _36
REMARK   19  A    between atoms: _36  and  _37
REMARK   20  A    between atoms: _43  and  _45
REMARK   21  A    between atoms: _45  and  _46
REMARK   22  A    between atoms: _45  and  _48
REMARK   23  A    between atoms: _48  and  _49
REMARK   24  A    between atoms: _52  and  _54
REMARK   25  A    between atoms: _54  and  _55
REMARK   26  A    between atoms: _54  and  _57
REMARK   27  A    between atoms: _61  and  _62
REMARK   28  A    between atoms: _67  and  _69
REMARK   29  A    between atoms: _69  and  _70
REMARK   30  A    between atoms: _69  and  _72
REMARK   31  A    between atoms: _72  and  _73
REMARK   32  A    between atoms: _75  and  _77
REMARK   33  A    between atoms: _77  and  _78
REMARK   34  A    between atoms: _77  and  _80
REMARK   35  A    between atoms: _80  and  _81
REMARK   36  A    between atoms: _81  and  _82
REMARK   37  A    between atoms: _84  and  _86
REMARK   38  A    between atoms: _86  and  _87
REMARK   39  A    between atoms: _86  and  _89
REMARK   40  A    between atoms: _89  and  _90
REMARK   41  A    between atoms: _96  and  _98
REMARK   42  A    between atoms: _98  and  _99
REMARK   43  A    between atoms: _98  and  _101
REMARK   44  A    between atoms: _101  and  _102
REMARK   45  A    between atoms: _104  and  _106
REMARK   46  A    between atoms: _106  and  _107
REMARK   47  A    between atoms: _106  and  _109
REMARK   48  A    between atoms: _109  and  _110
REMARK   49  A    between atoms: _115  and  _116
REMARK   50  A    between atoms: _118  and  _120
REMARK   51  A    between atoms: _120  and  _121
REMARK   52  A    between atoms: _120  and  _123
REMARK   53  A    between atoms: _123  and  _124
REMARK   54  A    between atoms: _127  and  _129
REMARK   55  A    between atoms: _129  and  _130
REMARK   56  A    between atoms: _132  and  _134
REMARK   57  A    between atoms: _134  and  _135
REMARK   58  A    between atoms: _134  and  _137
REMARK   59  A    between atoms: _137  and  _138
REMARK   60  A    between atoms: _140  and  _142
REMARK   61  A    between atoms: _142  and  _143
REMARK   62  A    between atoms: _142  and  _145
REMARK   63  A    between atoms: _145  and  _146
REMARK   64  A    between atoms: _148  and  _150
REMARK   65  A    between atoms: _150  and  _151
REMARK   66  A    between atoms: _153  and  _155
REMARK   67  A    between atoms: _155  and  _156
REMARK   68  A    between atoms: _155  and  _158
REMARK   69  A    between atoms: _158  and  _159
REMARK   70  A    between atoms: _162  and  _164
REMARK   71  A    between atoms: _164  and  _165
REMARK   72  A    between atoms: _164  and  _167
REMARK   73  A    between atoms: _167  and  _168
REMARK   74  A    between atoms: _171  and  _173
REMARK   75  A    between atoms: _173  and  _174
REMARK   76  A    between atoms: _173  and  _176
REMARK   77  A    between atoms: _176  and  _177
REMARK   78  A    between atoms: _180  and  _182
REMARK   79  A    between atoms: _182  and  _183
REMARK   80  A    between atoms: _185  and  _187
REMARK   81  A    between atoms: _187  and  _188
REMARK   82  A    between atoms: _190  and  _192
REMARK   83  A    between atoms: _192  and  _193
REMARK   84  A    between atoms: _192  and  _195
REMARK   85  A    between atoms: _195  and  _196
REMARK   86  A    between atoms: _198  and  _200
REMARK   87  A    between atoms: _200  and  _201
REMARK   88  A    between atoms: _200  and  _203
REMARK   89  A    between atoms: _203  and  _204
REMARK   90  A    between atoms: _207  and  _209
REMARK   91  A    between atoms: _209  and  _210
REMARK   92  A    between atoms: _209  and  _212
REMARK   93  A    between atoms: _212  and  _213
REMARK   94  A    between atoms: _213  and  _214
REMARK   95  A    between atoms: _214  and  _215
REMARK   96  A    between atoms: _224  and  _226
REMARK   97  A    between atoms: _226  and  _227
REMARK   98  A    between atoms: _226  and  _229
REMARK   99  A    between atoms: _229  and  _230
REMARK  100  A    between atoms: _236  and  _238
REMARK  101  A    between atoms: _238  and  _239
REMARK  102  A    between atoms: _238  and  _241
REMARK  103  A    between atoms: _241  and  _242
REMARK  104  A    between atoms: _242  and  _243
REMARK  105  A    between atoms: _243  and  _244
REMARK  106  A    between atoms: _244  and  _245
REMARK  107  A    between atoms: _249  and  _251
REMARK  108  A    between atoms: _251  and  _252
REMARK  109  A    between atoms: _254  and  _256
REMARK  110  A    between atoms: _256  and  _257
REMARK  111  A    between atoms: _256  and  _259
REMARK  112  A    between atoms: _259  and  _260
REMARK  113  A    between atoms: _263  and  _265
REMARK  114  A    between atoms: _265  and  _266
REMARK  115  A    between atoms: _265  and  _268
REMARK  116  A    between atoms: _268  and  _269
REMARK  117  A    between atoms: _269  and  _270
REMARK  118  A    between atoms: _270  and  _271
REMARK  119  A    between atoms: _271  and  _272
REMARK  120  A    between atoms: _276  and  _278
REMARK  121  A    between atoms: _278  and  _279
REMARK  122  A    between atoms: _281  and  _283
REMARK  123  A    between atoms: _283  and  _284
REMARK  124  A    between atoms: _283  and  _286
REMARK  125  A    between atoms: _288  and  _290
REMARK  126  A    between atoms: _290  and  _291
REMARK  127  A    between atoms: _290  and  _293
REMARK  128  A    between atoms: _296  and  _298
REMARK  129  A    between atoms: _298  and  _299
REMARK  130  A    between atoms: _298  and  _301
REMARK  131  A    between atoms: _301  and  _302
REMARK  132  A    between atoms: _307  and  _308
REMARK  133  A    between atoms: _310  and  _312
REMARK  134  A    between atoms: _312  and  _313
REMARK  135  A    between atoms: _312  and  _315
REMARK  136  A    between atoms: _315  and  _316
REMARK  137  A    between atoms: _316  and  _317
REMARK  138  A    between atoms: _322  and  _324
REMARK  139  A    between atoms: _324  and  _325
REMARK  140  A    between atoms: _324  and  _327
REMARK  141  A    between atoms: _327  and  _328
REMARK  142  A    between atoms: _331  and  _333
REMARK  143  A    between atoms: _333  and  _334
REMARK  144  A    between atoms: _333  and  _336
REMARK  145  A    between atoms: _336  and  _337
REMARK  146  A    between atoms: _339  and  _341
REMARK  147  A    between atoms: _341  and  _342
REMARK  148  A    between atoms: _341  and  _344
REMARK  149  A    between atoms: _344  and  _345
REMARK  150  A    between atoms: _348  and  _350
REMARK  151  A    between atoms: _350  and  _351
REMARK  152  A    between atoms: _350  and  _353
REMARK  153  A    between atoms: _353  and  _354
REMARK  154  A    between atoms: _357  and  _359
REMARK  155  A    between atoms: _359  and  _360
REMARK  156  A    between atoms: _359  and  _362
REMARK  157  A    between atoms: _362  and  _363
REMARK  158  A    between atoms: _363  and  _364
REMARK  159  A    between atoms: _367  and  _369
REMARK  160  A    between atoms: _369  and  _370
REMARK  161  A    between atoms: _369  and  _372
REMARK  162  A    between atoms: _372  and  _373
REMARK  163  A    between atoms: _375  and  _377
REMARK  164  A    between atoms: _377  and  _378
REMARK  165  A    between atoms: _377  and  _380
REMARK  166  A    between atoms: _380  and  _381
REMARK  167  A    between atoms: _384  and  _386
REMARK  168  A    between atoms: _386  and  _387
REMARK  169  A    between atoms: _389  and  _391
REMARK  170  A    between atoms: _391  and  _392
REMARK  171  A    between atoms: _391  and  _394
REMARK  172  A    between atoms: _394  and  _395
REMARK  173  A    between atoms: _398  and  _400
REMARK  174  A    between atoms: _400  and  _401
REMARK  175  A    between atoms: _400  and  _403
REMARK  176  A    between atoms: _403  and  _404
REMARK  177  A    between atoms: _410  and  _412
REMARK  178  A    between atoms: _412  and  _413
REMARK  179  A    between atoms: _412  and  _415
REMARK  180  A    between atoms: _415  and  _416
REMARK  181  A    between atoms: _422  and  _424
REMARK  182  A    between atoms: _424  and  _425
REMARK  183  A    between atoms: _424  and  _427
REMARK  184  A    between atoms: _427  and  _428
REMARK  185  A    between atoms: _431  and  _433
REMARK  186  A    between atoms: _433  and  _434
REMARK  187  A    between atoms: _433  and  _436
REMARK  188  A    between atoms: _436  and  _437
REMARK  189  A    between atoms: _440  and  _442
REMARK  190  A    between atoms: _442  and  _443
REMARK  191  A    between atoms: _442  and  _445
REMARK  192  A    between atoms: _445  and  _446
REMARK  193  A    between atoms: _452  and  _454
REMARK  194  A    between atoms: _454  and  _455
REMARK  195  A    between atoms: _454  and  _457
REMARK  196  A    between atoms: _457  and  _458
REMARK  197  A    between atoms: _463  and  _465
REMARK  198  A    between atoms: _465  and  _466
REMARK  199  A    between atoms: _465  and  _468
REMARK  200  A    between atoms: _468  and  _469
REMARK  201  A    between atoms: _469  and  _470
REMARK  202  A    between atoms: _473  and  _474
REMARK  203  A    between atoms: _479  and  _481
REMARK  204  A    between atoms: _481  and  _482
REMARK  205  A    between atoms: _484  and  _486
REMARK  206  A    between atoms: _486  and  _487
REMARK  207  A    between atoms: _490  and  _492
REMARK  208  A    between atoms: _492  and  _493
REMARK  209  A    between atoms: _492  and  _495
REMARK  210  A    between atoms: _495  and  _496
REMARK  211  A    between atoms: _499  and  _501
REMARK  212  A    between atoms: _501  and  _502
REMARK  213  A    between atoms: _504  and  _506
REMARK  214  A    between atoms: _506  and  _507
REMARK  215  A    between atoms: _510  and  _512
REMARK  216  A    between atoms: _512  and  _513
REMARK  217  A    between atoms: _512  and  _515
REMARK  218  A    between atoms: _518  and  _520
REMARK  219  A    between atoms: _520  and  _521
REMARK  220  A    between atoms: _520  and  _523
REMARK  221  A    between atoms: _523  and  _524
REMARK  222  A    between atoms: _527  and  _529
REMARK  223  A    between atoms: _529  and  _530
REMARK  224  A    between atoms: _529  and  _532
REMARK  225  A    between atoms: _532  and  _533
REMARK  226  A    between atoms: _533  and  _534
REMARK  227  A    between atoms: _536  and  _538
REMARK  228  A    between atoms: _538  and  _539
REMARK  229  A    between atoms: _538  and  _541
REMARK  230  A    between atoms: _541  and  _542
REMARK  231  A    between atoms: _547  and  _549
REMARK  232  A    between atoms: _549  and  _550
REMARK  233  A    between atoms: _549  and  _552
REMARK  234  A    between atoms: _552  and  _553
REMARK                            x       y       z     vdW  Elec       q    Type
REMARK                         _______ _______ _______ _____ _____    ______ ____
ROOT
ATOM      1  C   LEU A   1      49.402 -44.551  15.173  0.00  0.00    +0.238 C 
ATOM      2  N   GLU A   2      50.399 -45.309  15.610  0.00  0.00    -0.298 N 
ATOM      3  H   GLU A   2      51.181 -44.856  16.124  0.00  0.00    +0.150 HD
ATOM      4  O   LEU A   1      48.370 -45.005  14.681  0.00  0.00    -0.274 OA
ENDROOT
BRANCH   1   5
ATOM      5  CA  LEU A   1      49.601 -43.045  15.315  0.00  0.00    +0.145 C 
BRANCH   5   6
ATOM      6  N   LEU A   1      50.040 -42.659  16.660  0.00  0.00    -0.238 NA
ATOM      7  H   LEU A   1      51.054 -42.533  16.856  0.00  0.00    +0.142 HD
ENDBRANCH   5   6
BRANCH   5   8
ATOM      8  CB  LEU A   1      50.615 -42.574  14.261  0.00  0.00    +0.026 C 
BRANCH   8   9
ATOM      9  CG  LEU A   1      50.874 -41.066  14.215  0.00  0.00    +0.002 C 
ATOM     10  CD2 LEU A   1      49.596 -40.307  13.829  0.00  0.00    +0.000 C 
ATOM     11  CD1 LEU A   1      52.009 -40.742  13.251  0.00  0.00    +0.000 C 
ENDBRANCH   8   9
ENDBRANCH   5   8
ENDBRANCH   1   5
BRANCH   2  12
ATOM     12  CA  GLU A   2      50.444 -46.755  15.400  0.00  0.00    +0.137 C 
BRANCH  12  13
ATOM     13  C   GLU A   2      49.565 -47.525  16.362  0.00  0.00    +0.227 C 
ATOM     14  O   GLU A   2      48.954 -48.520  15.986  0.00  0.00    -0.286 OA
ENDBRANCH  12  13
BRANCH  12  15
ATOM     15  CB  GLU A   2      51.887 -47.256  15.533  0.00  0.00    +0.039 C 
BRANCH  15  16
ATOM     16  CG  GLU A   2      52.793 -46.716  14.430  0.00  0.00    +0.116 C 
BRANCH  16  17
ATOM     17  CD  GLU A   2      54.280 -46.850  14.738  0.00  0.00    +0.365 C 
ATOM     18  OE2 GLU A   2      54.649 -47.429  15.784  0.00  0.00    -0.246 OA
ATOM     19  OE1 GLU A   2      55.090 -46.374  13.917  0.00  0.00    -0.246 OA
ENDBRANCH  16  17
ENDBRANCH  15  16
ENDBRANCH  12  15
ENDBRANCH   2  12
TORSDOF 9
REMARK  Name = ../refined-set-2016/3ppm/3ppm_pocket.pdb
REMARK  234 active torsions:
REMARK  status: ('A' for Active; 'I' for Inactive)
REMARK    1  A    between atoms: _1  and  _3
REMARK    2  A    between atoms: _3  and  _4
REMARK    3  A    between atoms: _3  and  _6
REMARK    4  A    between atoms: _6  and  _7
REMARK    5  A    between atoms: _7  and  _8
REMARK    6  A    between atoms: _8  and  _9
REMARK    7  A    between atoms: _9  and  _10
REMARK    8  A    between atoms: _14  and  _16
REMARK    9  A    between atoms: _16  and  _17
REMARK   10  A    between atoms: _16  and  _19
REMARK   11  A    between atoms: _19  and  _20
REMARK   12  A    between atoms: _20  and  _21
REMARK   13  A    between atoms: _24  and  _26
REMARK   14  A    between atoms: _26  and  _27
REMARK   15  A    between atoms: _26  and  _29
REMARK   16  A    between atoms: _31  and  _33
REMARK   17  A    between atoms: _33  and  _34
REMARK   18  A    between atoms: _33  and  _36
REMARK   19  A    between atoms: _36  and  _37
REMARK   20  A    between atoms: _43  and  _45
REMARK   21  A    between atoms: _45  and  _46
REMARK   22  A    between atoms: _45  and  _48
REMARK   23  A    between atoms: _48  and  _49
REMARK   24  A    between atoms: _52  and  _54
REMARK   25  A    between atoms: _54  and  _55
REMARK   26  A    between atoms: _54  and  _57
REMARK   27  A    between atoms: _61  and  _62
REMARK   28  A    between atoms: _67  and  _69
REMARK   29  A    between atoms: _69  and  _70
REMARK   30  A    between atoms: _69  and  _72
REMARK   31  A    between atoms: _72  and  _73
REMARK   32  A    between atoms: _75  and  _77
REMARK   33  A    between atoms: _77  and  _78
REMARK   34  A    between atoms: _77  and  _80
REMARK   35  A    between atoms: _80  and  _81
REMARK   36  A    between atoms: _81  and  _82
REMARK   37  A    between atoms: _84  and  _86
REMARK   38  A    between atoms: _86  and  _87
REMARK   39  A    between atoms: _86  and  _89
REMARK   40  A    between atoms: _89  and  _90
REMARK   41  A    between atoms: _96  and  _98
REMARK   42  A    between atoms: _98  and  _99
REMARK   43  A    between atoms: _98  and  _101
REMARK   44  A    between atoms: _101  and  _102
REMARK   45  A    between atoms: _104  and  _106
REMARK   46  A    between atoms: _106  and  _107
REMARK   47  A    between atoms: _106  and  _109
REMARK   48  A    between atoms: _109  and  _110
REMARK   49  A    between atoms: _115  and  _116
REMARK   50  A    between atoms: _118  and  _120
REMARK   51  A    between atoms: _120  and  _121
REMARK   52  A    between atoms: _120  and  _123
REMARK   53  A    between atoms: _123  and  _124
REMARK   54  A    between atoms: _127  and  _129
REMARK   55  A    between atoms: _129  and  _130
REMARK   56  A    between atoms: _132  and  _134
REMARK   57  A    between atoms: _134  and  _135
REMARK   58  A    between atoms: _134  and  _137
REMARK   59  A    between atoms: _137  and  _138
REMARK   60  A    between atoms: _140  and  _142
REMARK   61  A    between atoms: _142  and  _143
REMARK   62  A    between atoms: _142  and  _145
REMARK   63  A    between atoms: _145  and  _146
REMARK   64  A    between atoms: _148  and  _150
REMARK   65  A    between atoms: _150  and  _151
REMARK   66  A    between atoms: _153  and  _155
REMARK   67  A    between atoms: _155  and  _156
REMARK   68  A    between atoms: _155  and  _158
REMARK   69  A    between atoms: _158  and  _159
REMARK   70  A    between atoms: _162  and  _164
REMARK   71  A    between atoms: _164  and  _165
REMARK   72  A    between atoms: _164  and  _167
REMARK   73  A    between atoms: _167  and  _168
REMARK   74  A    between atoms: _171  and  _173
REMARK   75  A    between atoms: _173  and  _174
REMARK   76  A    between atoms: _173  and  _176
REMARK   77  A    between atoms: _176  and  _177
REMARK   78  A    between atoms: _180  and  _182
REMARK   79  A    between atoms: _182  and  _183
REMARK   80  A    between atoms: _185  and  _187
REMARK   81  A    between atoms: _187  and  _188
REMARK   82  A    between atoms: _190  and  _192
REMARK   83  A    between atoms: _192  and  _193
REMARK   84  A    between atoms: _192  and  _195
REMARK   85  A    between atoms: _195  and  _196
REMARK   86  A    between atoms: _198  and  _200
REMARK   87  A    between atoms: _200  and  _201
REMARK   88  A    between atoms: _200  and  _203
REMARK   89  A    between atoms: _203  and  _204
REMARK   90  A    between atoms: _207  and  _209
REMARK   91  A    between atoms: _209  and  _210
REMARK   92  A    between atoms: _209  and  _212
REMARK   93  A    between atoms: _212  and  _213
REMARK   94  A    between atoms: _213  and  _214
REMARK   95  A    between atoms: _214  and  _215
REMARK   96  A    between atoms: _224  and  _226
REMARK   97  A    between atoms: _226  and  _227
REMARK   98  A    between atoms: _226  and  _229
REMARK   99  A    between atoms: _229  and  _230
REMARK  100  A    between atoms: _236  and  _238
REMARK  101  A    between atoms: _238  and  _239
REMARK  102  A    between atoms: _238  and  _241
REMARK  103  A    between atoms: _241  and  _242
REMARK  104  A    between atoms: _242  and  _243
REMARK  105  A    between atoms: _243  and  _244
REMARK  106  A    between atoms: _244  and  _245
REMARK  107  A    between atoms: _249  and  _251
REMARK  108  A    between atoms: _251  and  _252
REMARK  109  A    between atoms: _254  and  _256
REMARK  110  A    between atoms: _256  and  _257
REMARK  111  A    between atoms: _256  and  _259
REMARK  112  A    between atoms: _259  and  _260
REMARK  113  A    between atoms: _263  and  _265
REMARK  114  A    between atoms: _265  and  _266
REMARK  115  A    between atoms: _265  and  _268
REMARK  116  A    between atoms: _268  and  _269
REMARK  117  A    between atoms: _269  and  _270
REMARK  118  A    between atoms: _270  and  _271
REMARK  119  A    between atoms: _271  and  _272
REMARK  120  A    between atoms: _276  and  _278
REMARK  121  A    between atoms: _278  and  _279
REMARK  122  A    between atoms: _281  and  _283
REMARK  123  A    between atoms: _283  and  _284
REMARK  124  A    between atoms: _283  and  _286
REMARK  125  A    between atoms: _288  and  _290
REMARK  126  A    between atoms: _290  and  _291
REMARK  127  A    between atoms: _290  and  _293
REMARK  128  A    between atoms: _296  and  _298
REMARK  129  A    between atoms: _298  and  _299
REMARK  130  A    between atoms: _298  and  _301
REMARK  131  A    between atoms: _301  and  _302
REMARK  132  A    between atoms: _307  and  _308
REMARK  133  A    between atoms: _310  and  _312
REMARK  134  A    between atoms: _312  and  _313
REMARK  135  A    between atoms: _312  and  _315
REMARK  136  A    between atoms: _315  and  _316
REMARK  137  A    between atoms: _316  and  _317
REMARK  138  A    between atoms: _322  and  _324
REMARK  139  A    between atoms: _324  and  _325
REMARK  140  A    between atoms: _324  and  _327
REMARK  141  A    between atoms: _327  and  _328
REMARK  142  A    between atoms: _331  and  _333
REMARK  143  A    between atoms: _333  and  _334
REMARK  144  A    between atoms: _333  and  _336
REMARK  145  A    between atoms: _336  and  _337
REMARK  146  A    between atoms: _339  and  _341
REMARK  147  A    between atoms: _341  and  _342
REMARK  148  A    between atoms: _341  and  _344
REMARK  149  A    between atoms: _344  and  _345
REMARK  150  A    between atoms: _348  and  _350
REMARK  151  A    between atoms: _350  and  _351
REMARK  152  A    between atoms: _350  and  _353
REMARK  153  A    between atoms: _353  and  _354
REMARK  154  A    between atoms: _357  and  _359
REMARK  155  A    between atoms: _359  and  _360
REMARK  156  A    between atoms: _359  and  _362
REMARK  157  A    between atoms: _362  and  _363
REMARK  158  A    between atoms: _363  and  _364
REMARK  159  A    between atoms: _367  and  _369
REMARK  160  A    between atoms: _369  and  _370
REMARK  161  A    between atoms: _369  and  _372
REMARK  162  A    between atoms: _372  and  _373
REMARK  163  A    between atoms: _375  and  _377
REMARK  164  A    between atoms: _377  and  _378
REMARK  165  A    between atoms: _377  and  _380
REMARK  166  A    between atoms: _380  and  _381
REMARK  167  A    between atoms: _384  and  _386
REMARK  168  A    between atoms: _386  and  _387
REMARK  169  A    between atoms: _389  and  _391
REMARK  170  A    between atoms: _391  and  _392
REMARK  171  A    between atoms: _391  and  _394
REMARK  172  A    between atoms: _394  and  _395
REMARK  173  A    between atoms: _398  and  _400
REMARK  174  A    between atoms: _400  and  _401
REMARK  175  A    between atoms: _400  and  _403
REMARK  176  A    between atoms: _403  and  _404
REMARK  177  A    between atoms: _410  and  _412
REMARK  178  A    between atoms: _412  and  _413
REMARK  179  A    between atoms: _412  and  _415
REMARK  180  A    between atoms: _415  and  _416
REMARK  181  A    between atoms: _422  and  _424
REMARK  182  A    between atoms: _424  and  _425
REMARK  183  A    between atoms: _424  and  _427
REMARK  184  A    between atoms: _427  and  _428
REMARK  185  A    between atoms: _431  and  _433
REMARK  186  A    between atoms: _433  and  _434
REMARK  187  A    between atoms: _433  and  _436
REMARK  188  A    between atoms: _436  and  _437
REMARK  189  A    between atoms: _440  and  _442
REMARK  190  A    between atoms: _442  and  _443
REMARK  191  A    between atoms: _442  and  _445
REMARK  192  A    between atoms: _445  and  _446
REMARK  193  A    between atoms: _452  and  _454
REMARK  194  A    between atoms: _454  and  _455
REMARK  195  A    between atoms: _454  and  _457
REMARK  196  A    between atoms: _457  and  _458
REMARK  197  A    between atoms: _463  and  _465
REMARK  198  A    between atoms: _465  and  _466
REMARK  199  A    between atoms: _465  and  _468
REMARK  200  A    between atoms: _468  and  _469
REMARK  201  A    between atoms: _469  and  _470
REMARK  202  A    between atoms: _473  and  _474
REMARK  203  A    between atoms: _479  and  _481
REMARK  204  A    between atoms: _481  and  _482
REMARK  205  A    between atoms: _484  and  _486
REMARK  206  A    between atoms: _486  and  _487
REMARK  207  A    between atoms: _490  and  _492
REMARK  208  A    between atoms: _492  and  _493
REMARK  209  A    between atoms: _492  and  _495
REMARK  210  A    between atoms: _495  and  _496
REMARK  211  A    between atoms: _499  and  _501
REMARK  212  A    between atoms: _501  and  _502
REMARK  213  A    between atoms: _504  and  _506
REMARK  214  A    between atoms: _506  and  _507
REMARK  215  A    between atoms: _510  and  _512
REMARK  216  A    between atoms: _512  and  _513
REMARK  217  A    between atoms: _512  and  _515
REMARK  218  A    between atoms: _518  and  _520
REMARK  219  A    between atoms: _520  and  _521
REMARK  220  A    between atoms: _520  and  _523
REMARK  221  A    between atoms: _523  and  _524
REMARK  222  A    between atoms: _527  and  _529
REMARK  223  A    between atoms: _529  and  _530
REMARK  224  A    between atoms: _529  and  _532
REMARK  225  A    between atoms: _532  and  _533
REMARK  226  A    between atoms: _533  and  _534
REMARK  227  A    between atoms: _536  and  _538
REMARK  228  A    between atoms: _538  and  _539
REMARK  229  A    between atoms: _538  and  _541
REMARK  230  A    between atoms: _541  and  _542
REMARK  231  A    between atoms: _547  and  _549
REMARK  232  A    between atoms: _549  and  _550
REMARK  233  A    between atoms: _549  and  _552
REMARK  234  A    between atoms: _552  and  _553
REMARK                            x       y       z     vdW  Elec       q    Type
REMARK                         _______ _______ _______ _____ _____    ______ ____
ROOT
ATOM      1  CA  THR A   2      45.182 -47.249  14.312  0.00  0.00    +0.176 C 
ENDROOT
BRANCH   1   4
ATOM      2  C   SER A   1      44.462 -45.290  15.534  0.00  0.00    +0.241 C 
ATOM      3  O   SER A   1      43.276 -45.552  15.317  0.00  0.00    -0.274 OA
ATOM      4  N   THR A   2      45.451 -46.055  15.100  0.00  0.00    -0.295 N 
ATOM      5  H   THR A   2      46.434 -45.800  15.325  0.00  0.00    +0.150 HD
BRANCH   2   6
ATOM      6  CA  SER A   1      44.873 -44.043  16.311  0.00  0.00    +0.174 C 
BRANCH   6   7
ATOM      7  N   SER A   1      45.727 -44.376  17.456  0.00  0.00    -0.236 NA
ATOM      8  H   SER A   1      46.727 -44.090  17.456  0.00  0.00    +0.142 HD
ENDBRANCH   6   7
BRANCH   6   9
ATOM      9  CB  SER A   1      45.590 -43.067  15.371  0.00  0.00    +0.163 C 
BRANCH   9  10
ATOM     10  OG  SER A   1      45.851 -41.831  16.021  0.00  0.00    -0.380 OA
ATOM     11  H   SER A   1      46.425 -41.990  16.812  0.00  0.00    +0.211 HD
ENDBRANCH   9  10
ENDBRANCH   6   9
ENDBRANCH   2   6
ENDBRANCH   1   4
BRANCH   1  12
ATOM     12  C   THR A   2      44.342 -48.239  15.106  0.00  0.00    +0.243 C 
ATOM     13  N   GLY A   3      44.696 -48.436  16.373  0.00  0.00    -0.296 N 
ATOM     14  H   GLY A   3      45.522 -47.935  16.759  0.00  0.00    +0.150 HD
ATOM     15  O   THR A   2      43.372 -48.797  14.590  0.00  0.00    -0.273 OA
BRANCH  13  16
ATOM     16  CA  GLY A   3      43.942 -49.344  17.227  0.00  0.00    +0.163 C 
BRANCH  16  17
ATOM     17  C   GLY A   3      42.511 -48.893  17.475  0.00  0.00    +0.229 C 
ATOM     18  O   GLY A   3      41.584 -49.712  17.543  0.00  0.00    -0.286 OA
ENDBRANCH  16  17
ENDBRANCH  13  16
ENDBRANCH   1  12
BRANCH   1  19
ATOM     19  CB  THR A   2      46.492 -47.908  13.853  0.00  0.00    +0.137 C 
ATOM     20  CG2 THR A   2      46.202 -49.211  13.089  0.00  0.00    +0.034 C 
BRANCH  19  21
ATOM     21  OG1 THR A   2      47.188 -46.992  12.997  0.00  0.00    -0.382 OA
ATOM     22  HG1 THR A   2      47.385 -46.160  13.496  0.00  0.00    +0.210 HD
ENDBRANCH  19  21
ENDBRANCH   1  19
TORSDOF 10
REMARK  Name = ../refined-set-2016/3ppm/3ppm_pocket.pdb
REMARK  234 active torsions:
REMARK  status: ('A' for Active; 'I' for Inactive)
REMARK    1  A    between atoms: _1  and  _3
REMARK    2  A    between atoms: _3  and  _4
REMARK    3  A    between atoms: _3  and  _6
REMARK    4  A    between atoms: _6  and  _7
REMARK    5  A    between atoms: _7  and  _8
REMARK    6  A    between atoms: _8  and  _9
REMARK    7  A    between atoms: _9  and  _10
REMARK    8  A    between atoms: _14  and  _16
REMARK    9  A    between atoms: _16  and  _17
REMARK   10  A    between atoms: _16  and  _19
REMARK   11  A    between atoms: _19  and  _20
REMARK   12  A    between atoms: _20  and  _21
REMARK   13  A    between atoms: _24  and  _26
REMARK   14  A    between atoms: _26  and  _27
REMARK   15  A    between atoms: _26  and  _29
REMARK   16  A    between atoms: _31  and  _33
REMARK   17  A    between atoms: _33  and  _34
REMARK   18  A    between atoms: _33  and  _36
REMARK   19  A    between atoms: _36  and  _37
REMARK   20  A    between atoms: _43  and  _45
REMARK   21  A    between atoms: _45  and  _46
REMARK   22  A    between atoms: _45  and  _48
REMARK   23  A    between atoms: _48  and  _49
REMARK   24  A    between atoms: _52  and  _54
REMARK   25  A    between atoms: _54  and  _55
REMARK   26  A    between atoms: _54  and  _57
REMARK   27  A    between atoms: _61  and  _62
REMARK   28  A    between atoms: _67  and  _69
REMARK   29  A    between atoms: _69  and  _70
REMARK   30  A    between atoms: _69  and  _72
REMARK   31  A    between atoms: _72  and  _73
REMARK   32  A    between atoms: _75  and  _77
REMARK   33  A    between atoms: _77  and  _78
REMARK   34  A    between atoms: _77  and  _80
REMARK   35  A    between atoms: _80  and  _81
REMARK   36  A    between atoms: _81  and  _82
REMARK   37  A    between atoms: _84  and  _86
REMARK   38  A    between atoms: _86  and  _87
REMARK   39  A    between atoms: _86  and  _89
REMARK   40  A    between atoms: _89  and  _90
REMARK   41  A    between atoms: _96  and  _98
REMARK   42  A    between atoms: _98  and  _99
REMARK   43  A    between atoms: _98  and  _101
REMARK   44  A    between atoms: _101  and  _102
REMARK   45  A    between atoms: _104  and  _106
REMARK   46  A    between atoms: _106  and  _107
REMARK   47  A    between atoms: _106  and  _109
REMARK   48  A    between atoms: _109  and  _110
REMARK   49  A    between atoms: _115  and  _116
REMARK   50  A    between atoms: _118  and  _120
REMARK   51  A    between atoms: _120  and  _121
REMARK   52  A    between atoms: _120  and  _123
REMARK   53  A    between atoms: _123  and  _124
REMARK   54  A    between atoms: _127  and  _129
REMARK   55  A    between atoms: _129  and  _130
REMARK   56  A    between atoms: _132  and  _134
REMARK   57  A    between atoms: _134  and  _135
REMARK   58  A    between atoms: _134  and  _137
REMARK   59  A    between atoms: _137  and  _138
REMARK   60  A    between atoms: _140  and  _142
REMARK   61  A    between atoms: _142  and  _143
REMARK   62  A    between atoms: _142  and  _145
REMARK   63  A    between atoms: _145  and  _146
REMARK   64  A    between atoms: _148  and  _150
REMARK   65  A    between atoms: _150  and  _151
REMARK   66  A    between atoms: _153  and  _155
REMARK   67  A    between atoms: _155  and  _156
REMARK   68  A    between atoms: _155  and  _158
REMARK   69  A    between atoms: _158  and  _159
REMARK   70  A    between atoms: _162  and  _164
REMARK   71  A    between atoms: _164  and  _165
REMARK   72  A    between atoms: _164  and  _167
REMARK   73  A    between atoms: _167  and  _168
REMARK   74  A    between atoms: _171  and  _173
REMARK   75  A    between atoms: _173  and  _174
REMARK   76  A    between atoms: _173  and  _176
REMARK   77  A    between atoms: _176  and  _177
REMARK   78  A    between atoms: _180  and  _182
REMARK   79  A    between atoms: _182  and  _183
REMARK   80  A    between atoms: _185  and  _187
REMARK   81  A    between atoms: _187  and  _188
REMARK   82  A    between atoms: _190  and  _192
REMARK   83  A    between atoms: _192  and  _193
REMARK   84  A    between atoms: _192  and  _195
REMARK   85  A    between atoms: _195  and  _196
REMARK   86  A    between atoms: _198  and  _200
REMARK   87  A    between atoms: _200  and  _201
REMARK   88  A    between atoms: _200  and  _203
REMARK   89  A    between atoms: _203  and  _204
REMARK   90  A    between atoms: _207  and  _209
REMARK   91  A    between atoms: _209  and  _210
REMARK   92  A    between atoms: _209  and  _212
REMARK   93  A    between atoms: _212  and  _213
REMARK   94  A    between atoms: _213  and  _214
REMARK   95  A    between atoms: _214  and  _215
REMARK   96  A    between atoms: _224  and  _226
REMARK   97  A    between atoms: _226  and  _227
REMARK   98  A    between atoms: _226  and  _229
REMARK   99  A    between atoms: _229  and  _230
REMARK  100  A    between atoms: _236  and  _238
REMARK  101  A    between atoms: _238  and  _239
REMARK  102  A    between atoms: _238  and  _241
REMARK  103  A    between atoms: _241  and  _242
REMARK  104  A    between atoms: _242  and  _243
REMARK  105  A    between atoms: _243  and  _244
REMARK  106  A    between atoms: _244  and  _245
REMARK  107  A    between atoms: _249  and  _251
REMARK  108  A    between atoms: _251  and  _252
REMARK  109  A    between atoms: _254  and  _256
REMARK  110  A    between atoms: _256  and  _257
REMARK  111  A    between atoms: _256  and  _259
REMARK  112  A    between atoms: _259  and  _260
REMARK  113  A    between atoms: _263  and  _265
REMARK  114  A    between atoms: _265  and  _266
REMARK  115  A    between atoms: _265  and  _268
REMARK  116  A    between atoms: _268  and  _269
REMARK  117  A    between atoms: _269  and  _270
REMARK  118  A    between atoms: _270  and  _271
REMARK  119  A    between atoms: _271  and  _272
REMARK  120  A    between atoms: _276  and  _278
REMARK  121  A    between atoms: _278  and  _279
REMARK  122  A    between atoms: _281  and  _283
REMARK  123  A    between atoms: _283  and  _284
REMARK  124  A    between atoms: _283  and  _286
REMARK  125  A    between atoms: _288  and  _290
REMARK  126  A    between atoms: _290  and  _291
REMARK  127  A    between atoms: _290  and  _293
REMARK  128  A    between atoms: _296  and  _298
REMARK  129  A    between atoms: _298  and  _299
REMARK  130  A    between atoms: _298  and  _301
REMARK  131  A    between atoms: _301  and  _302
REMARK  132  A    between atoms: _307  and  _308
REMARK  133  A    between atoms: _310  and  _312
REMARK  134  A    between atoms: _312  and  _313
REMARK  135  A    between atoms: _312  and  _315
REMARK  136  A    between atoms: _315  and  _316
REMARK  137  A    between atoms: _316  and  _317
REMARK  138  A    between atoms: _322  and  _324
REMARK  139  A    between atoms: _324  and  _325
REMARK  140  A    between atoms: _324  and  _327
REMARK  141  A    between atoms: _327  and  _328
REMARK  142  A    between atoms: _331  and  _333
REMARK  143  A    between atoms: _333  and  _334
REMARK  144  A    between atoms: _333  and  _336
REMARK  145  A    between atoms: _336  and  _337
REMARK  146  A    between atoms: _339  and  _341
REMARK  147  A    between atoms: _341  and  _342
REMARK  148  A    between atoms: _341  and  _344
REMARK  149  A    between atoms: _344  and  _345
REMARK  150  A    between atoms: _348  and  _350
REMARK  151  A    between atoms: _350  and  _351
REMARK  152  A    between atoms: _350  and  _353
REMARK  153  A    between atoms: _353  and  _354
REMARK  154  A    between atoms: _357  and  _359
REMARK  155  A    between atoms: _359  and  _360
REMARK  156  A    between atoms: _359  and  _362
REMARK  157  A    between atoms: _362  and  _363
REMARK  158  A    between atoms: _363  and  _364
REMARK  159  A    between atoms: _367  and  _369
REMARK  160  A    between atoms: _369  and  _370
REMARK  161  A    between atoms: _369  and  _372
REMARK  162  A    between atoms: _372  and  _373
REMARK  163  A    between atoms: _375  and  _377
REMARK  164  A    between atoms: _377  and  _378
REMARK  165  A    between atoms: _377  and  _380
REMARK  166  A    between atoms: _380  and  _381
REMARK  167  A    between atoms: _384  and  _386
REMARK  168  A    between atoms: _386  and  _387
REMARK  169  A    between atoms: _389  and  _391
REMARK  170  A    between atoms: _391  and  _392
REMARK  171  A    between atoms: _391  and  _394
REMARK  172  A    between atoms: _394  and  _395
REMARK  173  A    between atoms: _398  and  _400
REMARK  174  A    between atoms: _400  and  _401
REMARK  175  A    between atoms: _400  and  _403
REMARK  176  A    between atoms: _403  and  _404
REMARK  177  A    between atoms: _410  and  _412
REMARK  178  A    between atoms: _412  and  _413
REMARK  179  A    between atoms: _412  and  _415
REMARK  180  A    between atoms: _415  and  _416
REMARK  181  A    between atoms: _422  and  _424
REMARK  182  A    between atoms: _424  and  _425
REMARK  183  A    between atoms: _424  and  _427
REMARK  184  A    between atoms: _427  and  _428
REMARK  185  A    between atoms: _431  and  _433
REMARK  186  A    between atoms: _433  and  _434
REMARK  187  A    between atoms: _433  and  _436
REMARK  188  A    between atoms: _436  and  _437
REMARK  189  A    between atoms: _440  and  _442
REMARK  190  A    between atoms: _442  and  _443
REMARK  191  A    between atoms: _442  and  _445
REMARK  192  A    between atoms: _445  and  _446
REMARK  193  A    between atoms: _452  and  _454
REMARK  194  A    between atoms: _454  and  _455
REMARK  195  A    between atoms: _454  and  _457
REMARK  196  A    between atoms: _457  and  _458
REMARK  197  A    between atoms: _463  and  _465
REMARK  198  A    between atoms: _465  and  _466
REMARK  199  A    between atoms: _465  and  _468
REMARK  200  A    between atoms: _468  and  _469
REMARK  201  A    between atoms: _469  and  _470
REMARK  202  A    between atoms: _473  and  _474
REMARK  203  A    between atoms: _479  and  _481
REMARK  204  A    between atoms: _481  and  _482
REMARK  205  A    between atoms: _484  and  _486
REMARK  206  A    between atoms: _486  and  _487
REMARK  207  A    between atoms: _490  and  _492
REMARK  208  A    between atoms: _492  and  _493
REMARK  209  A    between atoms: _492  and  _495
REMARK  210  A    between atoms: _495  and  _496
REMARK  211  A    between atoms: _499  and  _501
REMARK  212  A    between atoms: _501  and  _502
REMARK  213  A    between atoms: _504  and  _506
REMARK  214  A    between atoms: _506  and  _507
REMARK  215  A    between atoms: _510  and  _512
REMARK  216  A    between atoms: _512  and  _513
REMARK  217  A    between atoms: _512  and  _515
REMARK  218  A    between atoms: _518  and  _520
REMARK  219  A    between atoms: _520  and  _521
REMARK  220  A    between atoms: _520  and  _523
REMARK  221  A    between atoms: _523  and  _524
REMARK  222  A    between atoms: _527  and  _529
REMARK  223  A    between atoms: _529  and  _530
REMARK  224  A    between atoms: _529  and  _532
REMARK  225  A    between atoms: _532  and  _533
REMARK  226  A    between atoms: _533  and  _534
REMARK  227  A    between atoms: _536  and  _538
REMARK  228  A    between atoms: _538  and  _539
REMARK  229  A    between atoms: _538  and  _541
REMARK  230  A    between atoms: _541  and  _542
REMARK  231  A    between atoms: _547  and  _549
REMARK  232  A    between atoms: _549  and  _550
REMARK  233  A    between atoms: _549  and  _552
REMARK  234  A    between atoms: _552  and  _553
REMARK                            x       y       z     vdW  Elec       q    Type
REMARK                         _______ _______ _______ _____ _____    ______ ____
ROOT
ATOM      1  C   LEU A   1      39.657 -48.487  13.817  0.00  0.00    +0.238 C 
ATOM      2  N   PHE A   2      40.510 -49.413  14.244  0.00  0.00    -0.298 N 
ATOM      3  H   PHE A   2      41.291 -49.140  14.874  0.00  0.00    +0.150 HD
ATOM      4  O   LEU A   1      38.657 -48.757  13.143  0.00  0.00    -0.274 OA
ENDROOT
BRANCH   1   5
ATOM      5  CA  LEU A   1      39.977 -47.048  14.194  0.00  0.00    +0.145 C 
BRANCH   5   6
ATOM      6  N   LEU A   1      40.736 -46.960  15.441  0.00  0.00    -0.238 NA
ATOM      7  H   LEU A   1      41.749 -46.725  15.413  0.00  0.00    +0.142 HD
ENDBRANCH   5   6
BRANCH   5   8
ATOM      8  CB  LEU A   1      40.749 -46.381  13.058  0.00  0.00    +0.026 C 
BRANCH   8   9
ATOM      9  CG  LEU A   1      40.868 -44.868  13.200  0.00  0.00    +0.002 C 
ATOM     10  CD2 LEU A   1      39.515 -44.154  12.964  0.00  0.00    +0.000 C 
ATOM     11  CD1 LEU A   1      41.931 -44.365  12.234  0.00  0.00    +0.000 C 
ENDBRANCH   8   9
ENDBRANCH   5   8
ENDBRANCH   1   5
BRANCH   2  12
ATOM     12  CA  PHE A   2      40.365 -50.805  13.841  0.00  0.00    +0.141 C 
BRANCH  12  13
ATOM     13  C   PHE A   2      40.357 -51.767  15.018  0.00  0.00    +0.227 C 
ATOM     14  O   PHE A   2      40.917 -52.869  14.932  0.00  0.00    -0.286 OA
ENDBRANCH  12  13
BRANCH  12  15
ATOM     15  CB  PHE A   2      41.463 -51.190  12.838  0.00  0.00    +0.054 C 
BRANCH  15  16
ATOM     16  CG  PHE A   2      41.336 -50.481  11.515  0.00  0.00    -0.020 A 
ATOM     17  CD2 PHE A   2      42.259 -49.521  11.129  0.00  0.00    -0.004 A 
ATOM     18  CE2 PHE A   2      42.127 -48.862   9.911  0.00  0.00    -0.000 A 
ATOM     19  CZ  PHE A   2      41.055 -49.151   9.078  0.00  0.00    -0.000 A 
ATOM     20  CE1 PHE A   2      40.124 -50.099   9.458  0.00  0.00    -0.000 A 
ATOM     21  CD1 PHE A   2      40.269 -50.760  10.668  0.00  0.00    -0.004 A 
ENDBRANCH  15  16
ENDBRANCH  12  15
ENDBRANCH   2  12
TORSDOF 8
REMARK  Name = ../refined-set-2016/3ppm/3ppm_pocket.pdb
REMARK  234 active torsions:
REMARK  status: ('A' for Active; 'I' for Inactive)
REMARK    1  A    between atoms: _1  and  _3
REMARK    2  A    between atoms: _3  and  _4
REMARK    3  A    between atoms: _3  and  _6
REMARK    4  A    between atoms: _6  and  _7
REMARK    5  A    between atoms: _7  and  _8
REMARK    6  A    between atoms: _8  and  _9
REMARK    7  A    between atoms: _9  and  _10
REMARK    8  A    between atoms: _14  and  _16
REMARK    9  A    between atoms: _16  and  _17
REMARK   10  A    between atoms: _16  and  _19
REMARK   11  A    between atoms: _19  and  _20
REMARK   12  A    between atoms: _20  and  _21
REMARK   13  A    between atoms: _24  and  _26
REMARK   14  A    between atoms: _26  and  _27
REMARK   15  A    between atoms: _26  and  _29
REMARK   16  A    between atoms: _31  and  _33
REMARK   17  A    between atoms: _33  and  _34
REMARK   18  A    between atoms: _33  and  _36
REMARK   19  A    between atoms: _36  and  _37
REMARK   20  A    between atoms: _43  and  _45
REMARK   21  A    between atoms: _45  and  _46
REMARK   22  A    between atoms: _45  and  _48
REMARK   23  A    between atoms: _48  and  _49
REMARK   24  A    between atoms: _52  and  _54
REMARK   25  A    between atoms: _54  and  _55
REMARK   26  A    between atoms: _54  and  _57
REMARK   27  A    between atoms: _61  and  _62
REMARK   28  A    between atoms: _67  and  _69
REMARK   29  A    between atoms: _69  and  _70
REMARK   30  A    between atoms: _69  and  _72
REMARK   31  A    between atoms: _72  and  _73
REMARK   32  A    between atoms: _75  and  _77
REMARK   33  A    between atoms: _77  and  _78
REMARK   34  A    between atoms: _77  and  _80
REMARK   35  A    between atoms: _80  and  _81
REMARK   36  A    between atoms: _81  and  _82
REMARK   37  A    between atoms: _84  and  _86
REMARK   38  A    between atoms: _86  and  _87
REMARK   39  A    between atoms: _86  and  _89
REMARK   40  A    between atoms: _89  and  _90
REMARK   41  A    between atoms: _96  and  _98
REMARK   42  A    between atoms: _98  and  _99
REMARK   43  A    between atoms: _98  and  _101
REMARK   44  A    between atoms: _101  and  _102
REMARK   45  A    between atoms: _104  and  _106
REMARK   46  A    between atoms: _106  and  _107
REMARK   47  A    between atoms: _106  and  _109
REMARK   48  A    between atoms: _109  and  _110
REMARK   49  A    between atoms: _115  and  _116
REMARK   50  A    between atoms: _118  and  _120
REMARK   51  A    between atoms: _120  and  _121
REMARK   52  A    between atoms: _120  and  _123
REMARK   53  A    between atoms: _123  and  _124
REMARK   54  A    between atoms: _127  and  _129
REMARK   55  A    between atoms: _129  and  _130
REMARK   56  A    between atoms: _132  and  _134
REMARK   57  A    between atoms: _134  and  _135
REMARK   58  A    between atoms: _134  and  _137
REMARK   59  A    between atoms: _137  and  _138
REMARK   60  A    between atoms: _140  and  _142
REMARK   61  A    between atoms: _142  and  _143
REMARK   62  A    between atoms: _142  and  _145
REMARK   63  A    between atoms: _145  and  _146
REMARK   64  A    between atoms: _148  and  _150
REMARK   65  A    between atoms: _150  and  _151
REMARK   66  A    between atoms: _153  and  _155
REMARK   67  A    between atoms: _155  and  _156
REMARK   68  A    between atoms: _155  and  _158
REMARK   69  A    between atoms: _158  and  _159
REMARK   70  A    between atoms: _162  and  _164
REMARK   71  A    between atoms: _164  and  _165
REMARK   72  A    between atoms: _164  and  _167
REMARK   73  A    between atoms: _167  and  _168
REMARK   74  A    between atoms: _171  and  _173
REMARK   75  A    between atoms: _173  and  _174
REMARK   76  A    between atoms: _173  and  _176
REMARK   77  A    between atoms: _176  and  _177
REMARK   78  A    between atoms: _180  and  _182
REMARK   79  A    between atoms: _182  and  _183
REMARK   80  A    between atoms: _185  and  _187
REMARK   81  A    between atoms: _187  and  _188
REMARK   82  A    between atoms: _190  and  _192
REMARK   83  A    between atoms: _192  and  _193
REMARK   84  A    between atoms: _192  and  _195
REMARK   85  A    between atoms: _195  and  _196
REMARK   86  A    between atoms: _198  and  _200
REMARK   87  A    between atoms: _200  and  _201
REMARK   88  A    between atoms: _200  and  _203
REMARK   89  A    between atoms: _203  and  _204
REMARK   90  A    between atoms: _207  and  _209
REMARK   91  A    between atoms: _209  and  _210
REMARK   92  A    between atoms: _209  and  _212
REMARK   93  A    between atoms: _212  and  _213
REMARK   94  A    between atoms: _213  and  _214
REMARK   95  A    between atoms: _214  and  _215
REMARK   96  A    between atoms: _224  and  _226
REMARK   97  A    between atoms: _226  and  _227
REMARK   98  A    between atoms: _226  and  _229
REMARK   99  A    between atoms: _229  and  _230
REMARK  100  A    between atoms: _236  and  _238
REMARK  101  A    between atoms: _238  and  _239
REMARK  102  A    between atoms: _238  and  _241
REMARK  103  A    between atoms: _241  and  _242
REMARK  104  A    between atoms: _242  and  _243
REMARK  105  A    between atoms: _243  and  _244
REMARK  106  A    between atoms: _244  and  _245
REMARK  107  A    between atoms: _249  and  _251
REMARK  108  A    between atoms: _251  and  _252
REMARK  109  A    between atoms: _254  and  _256
REMARK  110  A    between atoms: _256  and  _257
REMARK  111  A    between atoms: _256  and  _259
REMARK  112  A    between atoms: _259  and  _260
REMARK  113  A    between atoms: _263  and  _265
REMARK  114  A    between atoms: _265  and  _266
REMARK  115  A    between atoms: _265  and  _268
REMARK  116  A    between atoms: _268  and  _269
REMARK  117  A    between atoms: _269  and  _270
REMARK  118  A    between atoms: _270  and  _271
REMARK  119  A    between atoms: _271  and  _272
REMARK  120  A    between atoms: _276  and  _278
REMARK  121  A    between atoms: _278  and  _279
REMARK  122  A    between atoms: _281  and  _283
REMARK  123  A    between atoms: _283  and  _284
REMARK  124  A    between atoms: _283  and  _286
REMARK  125  A    between atoms: _288  and  _290
REMARK  126  A    between atoms: _290  and  _291
REMARK  127  A    between atoms: _290  and  _293
REMARK  128  A    between atoms: _296  and  _298
REMARK  129  A    between atoms: _298  and  _299
REMARK  130  A    between atoms: _298  and  _301
REMARK  131  A    between atoms: _301  and  _302
REMARK  132  A    between atoms: _307  and  _308
REMARK  133  A    between atoms: _310  and  _312
REMARK  134  A    between atoms: _312  and  _313
REMARK  135  A    between atoms: _312  and  _315
REMARK  136  A    between atoms: _315  and  _316
REMARK  137  A    between atoms: _316  and  _317
REMARK  138  A    between atoms: _322  and  _324
REMARK  139  A    between atoms: _324  and  _325
REMARK  140  A    between atoms: _324  and  _327
REMARK  141  A    between atoms: _327  and  _328
REMARK  142  A    between atoms: _331  and  _333
REMARK  143  A    between atoms: _333  and  _334
REMARK  144  A    between atoms: _333  and  _336
REMARK  145  A    between atoms: _336  and  _337
REMARK  146  A    between atoms: _339  and  _341
REMARK  147  A    between atoms: _341  and  _342
REMARK  148  A    between atoms: _341  and  _344
REMARK  149  A    between atoms: _344  and  _345
REMARK  150  A    between atoms: _348  and  _350
REMARK  151  A    between atoms: _350  and  _351
REMARK  152  A    between atoms: _350  and  _353
REMARK  153  A    between atoms: _353  and  _354
REMARK  154  A    between atoms: _357  and  _359
REMARK  155  A    between atoms: _359  and  _360
REMARK  156  A    between atoms: _359  and  _362
REMARK  157  A    between atoms: _362  and  _363
REMARK  158  A    between atoms: _363  and  _364
REMARK  159  A    between atoms: _367  and  _369
REMARK  160  A    between atoms: _369  and  _370
REMARK  161  A    between atoms: _369  and  _372
REMARK  162  A    between atoms: _372  and  _373
REMARK  163  A    between atoms: _375  and  _377
REMARK  164  A    between atoms: _377  and  _378
REMARK  165  A    between atoms: _377  and  _380
REMARK  166  A    between atoms: _380  and  _381
REMARK  167  A    between atoms: _384  and  _386
REMARK  168  A    between atoms: _386  and  _387
REMARK  169  A    between atoms: _389  and  _391
REMARK  170  A    between atoms: _391  and  _392
REMARK  171  A    between atoms: _391  and  _394
REMARK  172  A    between atoms: _394  and  _395
REMARK  173  A    between atoms: _398  and  _400
REMARK  174  A    between atoms: _400  and  _401
REMARK  175  A    between atoms: _400  and  _403
REMARK  176  A    between atoms: _403  and  _404
REMARK  177  A    between atoms: _410  and  _412
REMARK  178  A    between atoms: _412  and  _413
REMARK  179  A    between atoms: _412  and  _415
REMARK  180  A    between atoms: _415  and  _416
REMARK  181  A    between atoms: _422  and  _424
REMARK  182  A    between atoms: _424  and  _425
REMARK  183  A    between atoms: _424  and  _427
REMARK  184  A    between atoms: _427  and  _428
REMARK  185  A    between atoms: _431  and  _433
REMARK  186  A    between atoms: _433  and  _434
REMARK  187  A    between atoms: _433  and  _436
REMARK  188  A    between atoms: _436  and  _437
REMARK  189  A    between atoms: _440  and  _442
REMARK  190  A    between atoms: _442  and  _443
REMARK  191  A    between atoms: _442  and  _445
REMARK  192  A    between atoms: _445  and  _446
REMARK  193  A    between atoms: _452  and  _454
REMARK  194  A    between atoms: _454  and  _455
REMARK  195  A    between atoms: _454  and  _457
REMARK  196  A    between atoms: _457  and  _458
REMARK  197  A    between atoms: _463  and  _465
REMARK  198  A    between atoms: _465  and  _466
REMARK  199  A    between atoms: _465  and  _468
REMARK  200  A    between atoms: _468  and  _469
REMARK  201  A    between atoms: _469  and  _470
REMARK  202  A    between atoms: _473  and  _474
REMARK  203  A    between atoms: _479  and  _481
REMARK  204  A    between atoms: _481  and  _482
REMARK  205  A    between atoms: _484  and  _486
REMARK  206  A    between atoms: _486  and  _487
REMARK  207  A    between atoms: _490  and  _492
REMARK  208  A    between atoms: _492  and  _493
REMARK  209  A    between atoms: _492  and  _495
REMARK  210  A    between atoms: _495  and  _496
REMARK  211  A    between atoms: _499  and  _501
REMARK  212  A    between atoms: _501  and  _502
REMARK  213  A    between atoms: _504  and  _506
REMARK  214  A    between atoms: _506  and  _507
REMARK  215  A    between atoms: _510  and  _512
REMARK  216  A    between atoms: _512  and  _513
REMARK  217  A    between atoms: _512  and  _515
REMARK  218  A    between atoms: _518  and  _520
REMARK  219  A    between atoms: _520  and  _521
REMARK  220  A    between atoms: _520  and  _523
REMARK  221  A    between atoms: _523  and  _524
REMARK  222  A    between atoms: _527  and  _529
REMARK  223  A    between atoms: _529  and  _530
REMARK  224  A    between atoms: _529  and  _532
REMARK  225  A    between atoms: _532  and  _533
REMARK  226  A    between atoms: _533  and  _534
REMARK  227  A    between atoms: _536  and  _538
REMARK  228  A    between atoms: _538  and  _539
REMARK  229  A    between atoms: _538  and  _541
REMARK  230  A    between atoms: _541  and  _542
REMARK  231  A    between atoms: _547  and  _549
REMARK  232  A    between atoms: _549  and  _550
REMARK  233  A    between atoms: _549  and  _552
REMARK  234  A    between atoms: _552  and  _553
REMARK                            x       y       z     vdW  Elec       q    Type
REMARK                         _______ _______ _______ _____ _____    ______ ____
ROOT
ATOM      1  CB  PHE A   1      35.643 -51.231   8.276  0.00  0.00    +0.051 C 
ENDROOT
BRANCH   1   2
ATOM      2  CG  PHE A   1      36.115 -50.466   7.070  0.00  0.00    -0.020 A 
ATOM      3  CD2 PHE A   1      35.618 -49.204   6.799  0.00  0.00    -0.004 A 
ATOM      4  CE2 PHE A   1      36.064 -48.481   5.690  0.00  0.00    -0.000 A 
ATOM      5  CZ  PHE A   1      37.029 -49.019   4.859  0.00  0.00    -0.000 A 
ATOM      6  CE1 PHE A   1      37.540 -50.276   5.124  0.00  0.00    -0.000 A 
ATOM      7  CD1 PHE A   1      37.081 -50.994   6.236  0.00  0.00    -0.004 A 
ENDBRANCH   1   2
BRANCH   1   8
ATOM      8  CA  PHE A   1      34.215 -51.759   8.160  0.00  0.00    +0.137 C 
BRANCH   8   9
ATOM      9  N   PHE A   1      33.899 -52.531   9.356  0.00  0.00    -0.239 NA
ATOM     10  H   PHE A   1      34.634 -52.656  10.082  0.00  0.00    +0.142 HD
ENDBRANCH   8   9
BRANCH   8  11
ATOM     11  C   PHE A   1      34.057 -52.620   6.910  0.00  0.00    +0.224 C 
ATOM     12  O   PHE A   1      33.474 -52.191   5.903  0.00  0.00    -0.287 OA
ENDBRANCH   8  11
ENDBRANCH   1   8
TORSDOF 4
REMARK  Name = ../refined-set-2016/3ppm/3ppm_pocket.pdb
REMARK  234 active torsions:
REMARK  status: ('A' for Active; 'I' for Inactive)
REMARK    1  A    between atoms: _1  and  _3
REMARK    2  A    between atoms: _3  and  _4
REMARK    3  A    between atoms: _3  and  _6
REMARK    4  A    between atoms: _6  and  _7
REMARK    5  A    between atoms: _7  and  _8
REMARK    6  A    between atoms: _8  and  _9
REMARK    7  A    between atoms: _9  and  _10
REMARK    8  A    between atoms: _14  and  _16
REMARK    9  A    between atoms: _16  and  _17
REMARK   10  A    between atoms: _16  and  _19
REMARK   11  A    between atoms: _19  and  _20
REMARK   12  A    between atoms: _20  and  _21
REMARK   13  A    between atoms: _24  and  _26
REMARK   14  A    between atoms: _26  and  _27
REMARK   15  A    between atoms: _26  and  _29
REMARK   16  A    between atoms: _31  and  _33
REMARK   17  A    between atoms: _33  and  _34
REMARK   18  A    between atoms: _33  and  _36
REMARK   19  A    between atoms: _36  and  _37
REMARK   20  A    between atoms: _43  and  _45
REMARK   21  A    between atoms: _45  and  _46
REMARK   22  A    between atoms: _45  and  _48
REMARK   23  A    between atoms: _48  and  _49
REMARK   24  A    between atoms: _52  and  _54
REMARK   25  A    between atoms: _54  and  _55
REMARK   26  A    between atoms: _54  and  _57
REMARK   27  A    between atoms: _61  and  _62
REMARK   28  A    between atoms: _67  and  _69
REMARK   29  A    between atoms: _69  and  _70
REMARK   30  A    between atoms: _69  and  _72
REMARK   31  A    between atoms: _72  and  _73
REMARK   32  A    between atoms: _75  and  _77
REMARK   33  A    between atoms: _77  and  _78
REMARK   34  A    between atoms: _77  and  _80
REMARK   35  A    between atoms: _80  and  _81
REMARK   36  A    between atoms: _81  and  _82
REMARK   37  A    between atoms: _84  and  _86
REMARK   38  A    between atoms: _86  and  _87
REMARK   39  A    between atoms: _86  and  _89
REMARK   40  A    between atoms: _89  and  _90
REMARK   41  A    between atoms: _96  and  _98
REMARK   42  A    between atoms: _98  and  _99
REMARK   43  A    between atoms: _98  and  _101
REMARK   44  A    between atoms: _101  and  _102
REMARK   45  A    between atoms: _104  and  _106
REMARK   46  A    between atoms: _106  and  _107
REMARK   47  A    between atoms: _106  and  _109
REMARK   48  A    between atoms: _109  and  _110
REMARK   49  A    between atoms: _115  and  _116
REMARK   50  A    between atoms: _118  and  _120
REMARK   51  A    between atoms: _120  and  _121
REMARK   52  A    between atoms: _120  and  _123
REMARK   53  A    between atoms: _123  and  _124
REMARK   54  A    between atoms: _127  and  _129
REMARK   55  A    between atoms: _129  and  _130
REMARK   56  A    between atoms: _132  and  _134
REMARK   57  A    between atoms: _134  and  _135
REMARK   58  A    between atoms: _134  and  _137
REMARK   59  A    between atoms: _137  and  _138
REMARK   60  A    between atoms: _140  and  _142
REMARK   61  A    between atoms: _142  and  _143
REMARK   62  A    between atoms: _142  and  _145
REMARK   63  A    between atoms: _145  and  _146
REMARK   64  A    between atoms: _148  and  _150
REMARK   65  A    between atoms: _150  and  _151
REMARK   66  A    between atoms: _153  and  _155
REMARK   67  A    between atoms: _155  and  _156
REMARK   68  A    between atoms: _155  and  _158
REMARK   69  A    between atoms: _158  and  _159
REMARK   70  A    between atoms: _162  and  _164
REMARK   71  A    between atoms: _164  and  _165
REMARK   72  A    between atoms: _164  and  _167
REMARK   73  A    between atoms: _167  and  _168
REMARK   74  A    between atoms: _171  and  _173
REMARK   75  A    between atoms: _173  and  _174
REMARK   76  A    between atoms: _173  and  _176
REMARK   77  A    between atoms: _176  and  _177
REMARK   78  A    between atoms: _180  and  _182
REMARK   79  A    between atoms: _182  and  _183
REMARK   80  A    between atoms: _185  and  _187
REMARK   81  A    between atoms: _187  and  _188
REMARK   82  A    between atoms: _190  and  _192
REMARK   83  A    between atoms: _192  and  _193
REMARK   84  A    between atoms: _192  and  _195
REMARK   85  A    between atoms: _195  and  _196
REMARK   86  A    between atoms: _198  and  _200
REMARK   87  A    between atoms: _200  and  _201
REMARK   88  A    between atoms: _200  and  _203
REMARK   89  A    between atoms: _203  and  _204
REMARK   90  A    between atoms: _207  and  _209
REMARK   91  A    between atoms: _209  and  _210
REMARK   92  A    between atoms: _209  and  _212
REMARK   93  A    between atoms: _212  and  _213
REMARK   94  A    between atoms: _213  and  _214
REMARK   95  A    between atoms: _214  and  _215
REMARK   96  A    between atoms: _224  and  _226
REMARK   97  A    between atoms: _226  and  _227
REMARK   98  A    between atoms: _226  and  _229
REMARK   99  A    between atoms: _229  and  _230
REMARK  100  A    between atoms: _236  and  _238
REMARK  101  A    between atoms: _238  and  _239
REMARK  102  A    between atoms: _238  and  _241
REMARK  103  A    between atoms: _241  and  _242
REMARK  104  A    between atoms: _242  and  _243
REMARK  105  A    between atoms: _243  and  _244
REMARK  106  A    between atoms: _244  and  _245
REMARK  107  A    between atoms: _249  and  _251
REMARK  108  A    between atoms: _251  and  _252
REMARK  109  A    between atoms: _254  and  _256
REMARK  110  A    between atoms: _256  and  _257
REMARK  111  A    between atoms: _256  and  _259
REMARK  112  A    between atoms: _259  and  _260
REMARK  113  A    between atoms: _263  and  _265
REMARK  114  A    between atoms: _265  and  _266
REMARK  115  A    between atoms: _265  and  _268
REMARK  116  A    between atoms: _268  and  _269
REMARK  117  A    between atoms: _269  and  _270
REMARK  118  A    between atoms: _270  and  _271
REMARK  119  A    between atoms: _271  and  _272
REMARK  120  A    between atoms: _276  and  _278
REMARK  121  A    between atoms: _278  and  _279
REMARK  122  A    between atoms: _281  and  _283
REMARK  123  A    between atoms: _283  and  _284
REMARK  124  A    between atoms: _283  and  _286
REMARK  125  A    between atoms: _288  and  _290
REMARK  126  A    between atoms: _290  and  _291
REMARK  127  A    between atoms: _290  and  _293
REMARK  128  A    between atoms: _296  and  _298
REMARK  129  A    between atoms: _298  and  _299
REMARK  130  A    between atoms: _298  and  _301
REMARK  131  A    between atoms: _301  and  _302
REMARK  132  A    between atoms: _307  and  _308
REMARK  133  A    between atoms: _310  and  _312
REMARK  134  A    between atoms: _312  and  _313
REMARK  135  A    between atoms: _312  and  _315
REMARK  136  A    between atoms: _315  and  _316
REMARK  137  A    between atoms: _316  and  _317
REMARK  138  A    between atoms: _322  and  _324
REMARK  139  A    between atoms: _324  and  _325
REMARK  140  A    between atoms: _324  and  _327
REMARK  141  A    between atoms: _327  and  _328
REMARK  142  A    between atoms: _331  and  _333
REMARK  143  A    between atoms: _333  and  _334
REMARK  144  A    between atoms: _333  and  _336
REMARK  145  A    between atoms: _336  and  _337
REMARK  146  A    between atoms: _339  and  _341
REMARK  147  A    between atoms: _341  and  _342
REMARK  148  A    between atoms: _341  and  _344
REMARK  149  A    between atoms: _344  and  _345
REMARK  150  A    between atoms: _348  and  _350
REMARK  151  A    between atoms: _350  and  _351
REMARK  152  A    between atoms: _350  and  _353
REMARK  153  A    between atoms: _353  and  _354
REMARK  154  A    between atoms: _357  and  _359
REMARK  155  A    between atoms: _359  and  _360
REMARK  156  A    between atoms: _359  and  _362
REMARK  157  A    between atoms: _362  and  _363
REMARK  158  A    between atoms: _363  and  _364
REMARK  159  A    between atoms: _367  and  _369
REMARK  160  A    between atoms: _369  and  _370
REMARK  161  A    between atoms: _369  and  _372
REMARK  162  A    between atoms: _372  and  _373
REMARK  163  A    between atoms: _375  and  _377
REMARK  164  A    between atoms: _377  and  _378
REMARK  165  A    between atoms: _377  and  _380
REMARK  166  A    between atoms: _380  and  _381
REMARK  167  A    between atoms: _384  and  _386
REMARK  168  A    between atoms: _386  and  _387
REMARK  169  A    between atoms: _389  and  _391
REMARK  170  A    between atoms: _391  and  _392
REMARK  171  A    between atoms: _391  and  _394
REMARK  172  A    between atoms: _394  and  _395
REMARK  173  A    between atoms: _398  and  _400
REMARK  174  A    between atoms: _400  and  _401
REMARK  175  A    between atoms: _400  and  _403
REMARK  176  A    between atoms: _403  and  _404
REMARK  177  A    between atoms: _410  and  _412
REMARK  178  A    between atoms: _412  and  _413
REMARK  179  A    between atoms: _412  and  _415
REMARK  180  A    between atoms: _415  and  _416
REMARK  181  A    between atoms: _422  and  _424
REMARK  182  A    between atoms: _424  and  _425
REMARK  183  A    between atoms: _424  and  _427
REMARK  184  A    between atoms: _427  and  _428
REMARK  185  A    between atoms: _431  and  _433
REMARK  186  A    between atoms: _433  and  _434
REMARK  187  A    between atoms: _433  and  _436
REMARK  188  A    between atoms: _436  and  _437
REMARK  189  A    between atoms: _440  and  _442
REMARK  190  A    between atoms: _442  and  _443
REMARK  191  A    between atoms: _442  and  _445
REMARK  192  A    between atoms: _445  and  _446
REMARK  193  A    between atoms: _452  and  _454
REMARK  194  A    between atoms: _454  and  _455
REMARK  195  A    between atoms: _454  and  _457
REMARK  196  A    between atoms: _457  and  _458
REMARK  197  A    between atoms: _463  and  _465
REMARK  198  A    between atoms: _465  and  _466
REMARK  199  A    between atoms: _465  and  _468
REMARK  200  A    between atoms: _468  and  _469
REMARK  201  A    between atoms: _469  and  _470
REMARK  202  A    between atoms: _473  and  _474
REMARK  203  A    between atoms: _479  and  _481
REMARK  204  A    between atoms: _481  and  _482
REMARK  205  A    between atoms: _484  and  _486
REMARK  206  A    between atoms: _486  and  _487
REMARK  207  A    between atoms: _490  and  _492
REMARK  208  A    between atoms: _492  and  _493
REMARK  209  A    between atoms: _492  and  _495
REMARK  210  A    between atoms: _495  and  _496
REMARK  211  A    between atoms: _499  and  _501
REMARK  212  A    between atoms: _501  and  _502
REMARK  213  A    between atoms: _504  and  _506
REMARK  214  A    between atoms: _506  and  _507
REMARK  215  A    between atoms: _510  and  _512
REMARK  216  A    between atoms: _512  and  _513
REMARK  217  A    between atoms: _512  and  _515
REMARK  218  A    between atoms: _518  and  _520
REMARK  219  A    between atoms: _520  and  _521
REMARK  220  A    between atoms: _520  and  _523
REMARK  221  A    between atoms: _523  and  _524
REMARK  222  A    between atoms: _527  and  _529
REMARK  223  A    between atoms: _529  and  _530
REMARK  224  A    between atoms: _529  and  _532
REMARK  225  A    between atoms: _532  and  _533
REMARK  226  A    between atoms: _533  and  _534
REMARK  227  A    between atoms: _536  and  _538
REMARK  228  A    between atoms: _538  and  _539
REMARK  229  A    between atoms: _538  and  _541
REMARK  230  A    between atoms: _541  and  _542
REMARK  231  A    between atoms: _547  and  _549
REMARK  232  A    between atoms: _549  and  _550
REMARK  233  A    between atoms: _549  and  _552
REMARK  234  A    between atoms: _552  and  _553
REMARK                            x       y       z     vdW  Elec       q    Type
REMARK                         _______ _______ _______ _____ _____    ______ ____
ROOT
ATOM      1  CA  LEU A   1      43.614 -51.757   2.539  0.00  0.00    +0.133 C 
ENDROOT
BRANCH   1   2
ATOM      2  N   LEU A   1      44.263 -51.862   1.227  0.00  0.00    -0.239 NA
ATOM      3  H   LEU A   1      44.214 -51.065   0.561  0.00  0.00    +0.142 HD
ENDBRANCH   1   2
BRANCH   1   4
ATOM      4  C   LEU A   1      42.648 -52.908   2.816  0.00  0.00    +0.224 C 
ATOM      5  O   LEU A   1      42.675 -53.521   3.889  0.00  0.00    -0.287 OA
ENDBRANCH   1   4
BRANCH   1   6
ATOM      6  CB  LEU A   1      42.867 -50.428   2.677  0.00  0.00    +0.025 C 
BRANCH   6   7
ATOM      7  CG  LEU A   1      42.090 -50.293   3.998  0.00  0.00    +0.002 C 
ATOM      8  CD2 LEU A   1      43.042 -50.279   5.183  0.00  0.00    +0.000 C 
ATOM      9  CD1 LEU A   1      41.217 -49.046   3.989  0.00  0.00    +0.000 C 
ENDBRANCH   6   7
ENDBRANCH   1   6
TORSDOF 4
REMARK  Name = ../refined-set-2016/3ppm/3ppm_pocket.pdb
REMARK  234 active torsions:
REMARK  status: ('A' for Active; 'I' for Inactive)
REMARK    1  A    between atoms: _1  and  _3
REMARK    2  A    between atoms: _3  and  _4
REMARK    3  A    between atoms: _3  and  _6
REMARK    4  A    between atoms: _6  and  _7
REMARK    5  A    between atoms: _7  and  _8
REMARK    6  A    between atoms: _8  and  _9
REMARK    7  A    between atoms: _9  and  _10
REMARK    8  A    between atoms: _14  and  _16
REMARK    9  A    between atoms: _16  and  _17
REMARK   10  A    between atoms: _16  and  _19
REMARK   11  A    between atoms: _19  and  _20
REMARK   12  A    between atoms: _20  and  _21
REMARK   13  A    between atoms: _24  and  _26
REMARK   14  A    between atoms: _26  and  _27
REMARK   15  A    between atoms: _26  and  _29
REMARK   16  A    between atoms: _31  and  _33
REMARK   17  A    between atoms: _33  and  _34
REMARK   18  A    between atoms: _33  and  _36
REMARK   19  A    between atoms: _36  and  _37
REMARK   20  A    between atoms: _43  and  _45
REMARK   21  A    between atoms: _45  and  _46
REMARK   22  A    between atoms: _45  and  _48
REMARK   23  A    between atoms: _48  and  _49
REMARK   24  A    between atoms: _52  and  _54
REMARK   25  A    between atoms: _54  and  _55
REMARK   26  A    between atoms: _54  and  _57
REMARK   27  A    between atoms: _61  and  _62
REMARK   28  A    between atoms: _67  and  _69
REMARK   29  A    between atoms: _69  and  _70
REMARK   30  A    between atoms: _69  and  _72
REMARK   31  A    between atoms: _72  and  _73
REMARK   32  A    between atoms: _75  and  _77
REMARK   33  A    between atoms: _77  and  _78
REMARK   34  A    between atoms: _77  and  _80
REMARK   35  A    between atoms: _80  and  _81
REMARK   36  A    between atoms: _81  and  _82
REMARK   37  A    between atoms: _84  and  _86
REMARK   38  A    between atoms: _86  and  _87
REMARK   39  A    between atoms: _86  and  _89
REMARK   40  A    between atoms: _89  and  _90
REMARK   41  A    between atoms: _96  and  _98
REMARK   42  A    between atoms: _98  and  _99
REMARK   43  A    between atoms: _98  and  _101
REMARK   44  A    between atoms: _101  and  _102
REMARK   45  A    between atoms: _104  and  _106
REMARK   46  A    between atoms: _106  and  _107
REMARK   47  A    between atoms: _106  and  _109
REMARK   48  A    between atoms: _109  and  _110
REMARK   49  A    between atoms: _115  and  _116
REMARK   50  A    between atoms: _118  and  _120
REMARK   51  A    between atoms: _120  and  _121
REMARK   52  A    between atoms: _120  and  _123
REMARK   53  A    between atoms: _123  and  _124
REMARK   54  A    between atoms: _127  and  _129
REMARK   55  A    between atoms: _129  and  _130
REMARK   56  A    between atoms: _132  and  _134
REMARK   57  A    between atoms: _134  and  _135
REMARK   58  A    between atoms: _134  and  _137
REMARK   59  A    between atoms: _137  and  _138
REMARK   60  A    between atoms: _140  and  _142
REMARK   61  A    between atoms: _142  and  _143
REMARK   62  A    between atoms: _142  and  _145
REMARK   63  A    between atoms: _145  and  _146
REMARK   64  A    between atoms: _148  and  _150
REMARK   65  A    between atoms: _150  and  _151
REMARK   66  A    between atoms: _153  and  _155
REMARK   67  A    between atoms: _155  and  _156
REMARK   68  A    between atoms: _155  and  _158
REMARK   69  A    between atoms: _158  and  _159
REMARK   70  A    between atoms: _162  and  _164
REMARK   71  A    between atoms: _164  and  _165
REMARK   72  A    between atoms: _164  and  _167
REMARK   73  A    between atoms: _167  and  _168
REMARK   74  A    between atoms: _171  and  _173
REMARK   75  A    between atoms: _173  and  _174
REMARK   76  A    between atoms: _173  and  _176
REMARK   77  A    between atoms: _176  and  _177
REMARK   78  A    between atoms: _180  and  _182
REMARK   79  A    between atoms: _182  and  _183
REMARK   80  A    between atoms: _185  and  _187
REMARK   81  A    between atoms: _187  and  _188
REMARK   82  A    between atoms: _190  and  _192
REMARK   83  A    between atoms: _192  and  _193
REMARK   84  A    between atoms: _192  and  _195
REMARK   85  A    between atoms: _195  and  _196
REMARK   86  A    between atoms: _198  and  _200
REMARK   87  A    between atoms: _200  and  _201
REMARK   88  A    between atoms: _200  and  _203
REMARK   89  A    between atoms: _203  and  _204
REMARK   90  A    between atoms: _207  and  _209
REMARK   91  A    between atoms: _209  and  _210
REMARK   92  A    between atoms: _209  and  _212
REMARK   93  A    between atoms: _212  and  _213
REMARK   94  A    between atoms: _213  and  _214
REMARK   95  A    between atoms: _214  and  _215
REMARK   96  A    between atoms: _224  and  _226
REMARK   97  A    between atoms: _226  and  _227
REMARK   98  A    between atoms: _226  and  _229
REMARK   99  A    between atoms: _229  and  _230
REMARK  100  A    between atoms: _236  and  _238
REMARK  101  A    between atoms: _238  and  _239
REMARK  102  A    between atoms: _238  and  _241
REMARK  103  A    between atoms: _241  and  _242
REMARK  104  A    between atoms: _242  and  _243
REMARK  105  A    between atoms: _243  and  _244
REMARK  106  A    between atoms: _244  and  _245
REMARK  107  A    between atoms: _249  and  _251
REMARK  108  A    between atoms: _251  and  _252
REMARK  109  A    between atoms: _254  and  _256
REMARK  110  A    between atoms: _256  and  _257
REMARK  111  A    between atoms: _256  and  _259
REMARK  112  A    between atoms: _259  and  _260
REMARK  113  A    between atoms: _263  and  _265
REMARK  114  A    between atoms: _265  and  _266
REMARK  115  A    between atoms: _265  and  _268
REMARK  116  A    between atoms: _268  and  _269
REMARK  117  A    between atoms: _269  and  _270
REMARK  118  A    between atoms: _270  and  _271
REMARK  119  A    between atoms: _271  and  _272
REMARK  120  A    between atoms: _276  and  _278
REMARK  121  A    between atoms: _278  and  _279
REMARK  122  A    between atoms: _281  and  _283
REMARK  123  A    between atoms: _283  and  _284
REMARK  124  A    between atoms: _283  and  _286
REMARK  125  A    between atoms: _288  and  _290
REMARK  126  A    between atoms: _290  and  _291
REMARK  127  A    between atoms: _290  and  _293
REMARK  128  A    between atoms: _296  and  _298
REMARK  129  A    between atoms: _298  and  _299
REMARK  130  A    between atoms: _298  and  _301
REMARK  131  A    between atoms: _301  and  _302
REMARK  132  A    between atoms: _307  and  _308
REMARK  133  A    between atoms: _310  and  _312
REMARK  134  A    between atoms: _312  and  _313
REMARK  135  A    between atoms: _312  and  _315
REMARK  136  A    between atoms: _315  and  _316
REMARK  137  A    between atoms: _316  and  _317
REMARK  138  A    between atoms: _322  and  _324
REMARK  139  A    between atoms: _324  and  _325
REMARK  140  A    between atoms: _324  and  _327
REMARK  141  A    between atoms: _327  and  _328
REMARK  142  A    between atoms: _331  and  _333
REMARK  143  A    between atoms: _333  and  _334
REMARK  144  A    between atoms: _333  and  _336
REMARK  145  A    between atoms: _336  and  _337
REMARK  146  A    between atoms: _339  and  _341
REMARK  147  A    between atoms: _341  and  _342
REMARK  148  A    between atoms: _341  and  _344
REMARK  149  A    between atoms: _344  and  _345
REMARK  150  A    between atoms: _348  and  _350
REMARK  151  A    between atoms: _350  and  _351
REMARK  152  A    between atoms: _350  and  _353
REMARK  153  A    between atoms: _353  and  _354
REMARK  154  A    between atoms: _357  and  _359
REMARK  155  A    between atoms: _359  and  _360
REMARK  156  A    between atoms: _359  and  _362
REMARK  157  A    between atoms: _362  and  _363
REMARK  158  A    between atoms: _363  and  _364
REMARK  159  A    between atoms: _367  and  _369
REMARK  160  A    between atoms: _369  and  _370
REMARK  161  A    between atoms: _369  and  _372
REMARK  162  A    between atoms: _372  and  _373
REMARK  163  A    between atoms: _375  and  _377
REMARK  164  A    between atoms: _377  and  _378
REMARK  165  A    between atoms: _377  and  _380
REMARK  166  A    between atoms: _380  and  _381
REMARK  167  A    between atoms: _384  and  _386
REMARK  168  A    between atoms: _386  and  _387
REMARK  169  A    between atoms: _389  and  _391
REMARK  170  A    between atoms: _391  and  _392
REMARK  171  A    between atoms: _391  and  _394
REMARK  172  A    between atoms: _394  and  _395
REMARK  173  A    between atoms: _398  and  _400
REMARK  174  A    between atoms: _400  and  _401
REMARK  175  A    between atoms: _400  and  _403
REMARK  176  A    between atoms: _403  and  _404
REMARK  177  A    between atoms: _410  and  _412
REMARK  178  A    between atoms: _412  and  _413
REMARK  179  A    between atoms: _412  and  _415
REMARK  180  A    between atoms: _415  and  _416
REMARK  181  A    between atoms: _422  and  _424
REMARK  182  A    between atoms: _424  and  _425
REMARK  183  A    between atoms: _424  and  _427
REMARK  184  A    between atoms: _427  and  _428
REMARK  185  A    between atoms: _431  and  _433
REMARK  186  A    between atoms: _433  and  _434
REMARK  187  A    between atoms: _433  and  _436
REMARK  188  A    between atoms: _436  and  _437
REMARK  189  A    between atoms: _440  and  _442
REMARK  190  A    between atoms: _442  and  _443
REMARK  191  A    between atoms: _442  and  _445
REMARK  192  A    between atoms: _445  and  _446
REMARK  193  A    between atoms: _452  and  _454
REMARK  194  A    between atoms: _454  and  _455
REMARK  195  A    between atoms: _454  and  _457
REMARK  196  A    between atoms: _457  and  _458
REMARK  197  A    between atoms: _463  and  _465
REMARK  198  A    between atoms: _465  and  _466
REMARK  199  A    between atoms: _465  and  _468
REMARK  200  A    between atoms: _468  and  _469
REMARK  201  A    between atoms: _469  and  _470
REMARK  202  A    between atoms: _473  and  _474
REMARK  203  A    between atoms: _479  and  _481
REMARK  204  A    between atoms: _481  and  _482
REMARK  205  A    between atoms: _484  and  _486
REMARK  206  A    between atoms: _486  and  _487
REMARK  207  A    between atoms: _490  and  _492
REMARK  208  A    between atoms: _492  and  _493
REMARK  209  A    between atoms: _492  and  _495
REMARK  210  A    between atoms: _495  and  _496
REMARK  211  A    between atoms: _499  and  _501
REMARK  212  A    between atoms: _501  and  _502
REMARK  213  A    between atoms: _504  and  _506
REMARK  214  A    between atoms: _506  and  _507
REMARK  215  A    between atoms: _510  and  _512
REMARK  216  A    between atoms: _512  and  _513
REMARK  217  A    between atoms: _512  and  _515
REMARK  218  A    between atoms: _518  and  _520
REMARK  219  A    between atoms: _520  and  _521
REMARK  220  A    between atoms: _520  and  _523
REMARK  221  A    between atoms: _523  and  _524
REMARK  222  A    between atoms: _527  and  _529
REMARK  223  A    between atoms: _529  and  _530
REMARK  224  A    between atoms: _529  and  _532
REMARK  225  A    between atoms: _532  and  _533
REMARK  226  A    between atoms: _533  and  _534
REMARK  227  A    between atoms: _536  and  _538
REMARK  228  A    between atoms: _538  and  _539
REMARK  229  A    between atoms: _538  and  _541
REMARK  230  A    between atoms: _541  and  _542
REMARK  231  A    between atoms: _547  and  _549
REMARK  232  A    between atoms: _549  and  _550
REMARK  233  A    between atoms: _549  and  _552
REMARK  234  A    between atoms: _552  and  _553
REMARK                            x       y       z     vdW  Elec       q    Type
REMARK                         _______ _______ _______ _____ _____    ______ ____
ROOT
ATOM      1  CA  LEU A   1      42.093 -55.918   6.759  0.00  0.00    +0.133 C 
ENDROOT
BRANCH   1   2
ATOM      2  N   LEU A   1      43.046 -55.821   5.647  0.00  0.00    -0.239 NA
ATOM      3  H   LEU A   1      42.888 -55.130   4.886  0.00  0.00    +0.142 HD
ENDBRANCH   1   2
BRANCH   1   4
ATOM      4  C   LEU A   1      41.471 -57.308   6.852  0.00  0.00    +0.224 C 
ATOM      5  O   LEU A   1      41.164 -57.783   7.946  0.00  0.00    -0.287 OA
ENDBRANCH   1   4
BRANCH   1   6
ATOM      6  CB  LEU A   1      40.996 -54.860   6.654  0.00  0.00    +0.025 C 
BRANCH   6   7
ATOM      7  CG  LEU A   1      41.391 -53.432   7.020  0.00  0.00    +0.002 C 
ATOM      8  CD2 LEU A   1      41.787 -53.346   8.487  0.00  0.00    +0.000 C 
ATOM      9  CD1 LEU A   1      40.242 -52.481   6.721  0.00  0.00    +0.000 C 
ENDBRANCH   6   7
ENDBRANCH   1   6
TORSDOF 4
REMARK  Name = ../refined-set-2016/3ppm/3ppm_pocket.pdb
REMARK  234 active torsions:
REMARK  status: ('A' for Active; 'I' for Inactive)
REMARK    1  A    between atoms: _1  and  _3
REMARK    2  A    between atoms: _3  and  _4
REMARK    3  A    between atoms: _3  and  _6
REMARK    4  A    between atoms: _6  and  _7
REMARK    5  A    between atoms: _7  and  _8
REMARK    6  A    between atoms: _8  and  _9
REMARK    7  A    between atoms: _9  and  _10
REMARK    8  A    between atoms: _14  and  _16
REMARK    9  A    between atoms: _16  and  _17
REMARK   10  A    between atoms: _16  and  _19
REMARK   11  A    between atoms: _19  and  _20
REMARK   12  A    between atoms: _20  and  _21
REMARK   13  A    between atoms: _24  and  _26
REMARK   14  A    between atoms: _26  and  _27
REMARK   15  A    between atoms: _26  and  _29
REMARK   16  A    between atoms: _31  and  _33
REMARK   17  A    between atoms: _33  and  _34
REMARK   18  A    between atoms: _33  and  _36
REMARK   19  A    between atoms: _36  and  _37
REMARK   20  A    between atoms: _43  and  _45
REMARK   21  A    between atoms: _45  and  _46
REMARK   22  A    between atoms: _45  and  _48
REMARK   23  A    between atoms: _48  and  _49
REMARK   24  A    between atoms: _52  and  _54
REMARK   25  A    between atoms: _54  and  _55
REMARK   26  A    between atoms: _54  and  _57
REMARK   27  A    between atoms: _61  and  _62
REMARK   28  A    between atoms: _67  and  _69
REMARK   29  A    between atoms: _69  and  _70
REMARK   30  A    between atoms: _69  and  _72
REMARK   31  A    between atoms: _72  and  _73
REMARK   32  A    between atoms: _75  and  _77
REMARK   33  A    between atoms: _77  and  _78
REMARK   34  A    between atoms: _77  and  _80
REMARK   35  A    between atoms: _80  and  _81
REMARK   36  A    between atoms: _81  and  _82
REMARK   37  A    between atoms: _84  and  _86
REMARK   38  A    between atoms: _86  and  _87
REMARK   39  A    between atoms: _86  and  _89
REMARK   40  A    between atoms: _89  and  _90
REMARK   41  A    between atoms: _96  and  _98
REMARK   42  A    between atoms: _98  and  _99
REMARK   43  A    between atoms: _98  and  _101
REMARK   44  A    between atoms: _101  and  _102
REMARK   45  A    between atoms: _104  and  _106
REMARK   46  A    between atoms: _106  and  _107
REMARK   47  A    between atoms: _106  and  _109
REMARK   48  A    between atoms: _109  and  _110
REMARK   49  A    between atoms: _115  and  _116
REMARK   50  A    between atoms: _118  and  _120
REMARK   51  A    between atoms: _120  and  _121
REMARK   52  A    between atoms: _120  and  _123
REMARK   53  A    between atoms: _123  and  _124
REMARK   54  A    between atoms: _127  and  _129
REMARK   55  A    between atoms: _129  and  _130
REMARK   56  A    between atoms: _132  and  _134
REMARK   57  A    between atoms: _134  and  _135
REMARK   58  A    between atoms: _134  and  _137
REMARK   59  A    between atoms: _137  and  _138
REMARK   60  A    between atoms: _140  and  _142
REMARK   61  A    between atoms: _142  and  _143
REMARK   62  A    between atoms: _142  and  _145
REMARK   63  A    between atoms: _145  and  _146
REMARK   64  A    between atoms: _148  and  _150
REMARK   65  A    between atoms: _150  and  _151
REMARK   66  A    between atoms: _153  and  _155
REMARK   67  A    between atoms: _155  and  _156
REMARK   68  A    between atoms: _155  and  _158
REMARK   69  A    between atoms: _158  and  _159
REMARK   70  A    between atoms: _162  and  _164
REMARK   71  A    between atoms: _164  and  _165
REMARK   72  A    between atoms: _164  and  _167
REMARK   73  A    between atoms: _167  and  _168
REMARK   74  A    between atoms: _171  and  _173
REMARK   75  A    between atoms: _173  and  _174
REMARK   76  A    between atoms: _173  and  _176
REMARK   77  A    between atoms: _176  and  _177
REMARK   78  A    between atoms: _180  and  _182
REMARK   79  A    between atoms: _182  and  _183
REMARK   80  A    between atoms: _185  and  _187
REMARK   81  A    between atoms: _187  and  _188
REMARK   82  A    between atoms: _190  and  _192
REMARK   83  A    between atoms: _192  and  _193
REMARK   84  A    between atoms: _192  and  _195
REMARK   85  A    between atoms: _195  and  _196
REMARK   86  A    between atoms: _198  and  _200
REMARK   87  A    between atoms: _200  and  _201
REMARK   88  A    between atoms: _200  and  _203
REMARK   89  A    between atoms: _203  and  _204
REMARK   90  A    between atoms: _207  and  _209
REMARK   91  A    between atoms: _209  and  _210
REMARK   92  A    between atoms: _209  and  _212
REMARK   93  A    between atoms: _212  and  _213
REMARK   94  A    between atoms: _213  and  _214
REMARK   95  A    between atoms: _214  and  _215
REMARK   96  A    between atoms: _224  and  _226
REMARK   97  A    between atoms: _226  and  _227
REMARK   98  A    between atoms: _226  and  _229
REMARK   99  A    between atoms: _229  and  _230
REMARK  100  A    between atoms: _236  and  _238
REMARK  101  A    between atoms: _238  and  _239
REMARK  102  A    between atoms: _238  and  _241
REMARK  103  A    between atoms: _241  and  _242
REMARK  104  A    between atoms: _242  and  _243
REMARK  105  A    between atoms: _243  and  _244
REMARK  106  A    between atoms: _244  and  _245
REMARK  107  A    between atoms: _249  and  _251
REMARK  108  A    between atoms: _251  and  _252
REMARK  109  A    between atoms: _254  and  _256
REMARK  110  A    between atoms: _256  and  _257
REMARK  111  A    between atoms: _256  and  _259
REMARK  112  A    between atoms: _259  and  _260
REMARK  113  A    between atoms: _263  and  _265
REMARK  114  A    between atoms: _265  and  _266
REMARK  115  A    between atoms: _265  and  _268
REMARK  116  A    between atoms: _268  and  _269
REMARK  117  A    between atoms: _269  and  _270
REMARK  118  A    between atoms: _270  and  _271
REMARK  119  A    between atoms: _271  and  _272
REMARK  120  A    between atoms: _276  and  _278
REMARK  121  A    between atoms: _278  and  _279
REMARK  122  A    between atoms: _281  and  _283
REMARK  123  A    between atoms: _283  and  _284
REMARK  124  A    between atoms: _283  and  _286
REMARK  125  A    between atoms: _288  and  _290
REMARK  126  A    between atoms: _290  and  _291
REMARK  127  A    between atoms: _290  and  _293
REMARK  128  A    between atoms: _296  and  _298
REMARK  129  A    between atoms: _298  and  _299
REMARK  130  A    between atoms: _298  and  _301
REMARK  131  A    between atoms: _301  and  _302
REMARK  132  A    between atoms: _307  and  _308
REMARK  133  A    between atoms: _310  and  _312
REMARK  134  A    between atoms: _312  and  _313
REMARK  135  A    between atoms: _312  and  _315
REMARK  136  A    between atoms: _315  and  _316
REMARK  137  A    between atoms: _316  and  _317
REMARK  138  A    between atoms: _322  and  _324
REMARK  139  A    between atoms: _324  and  _325
REMARK  140  A    between atoms: _324  and  _327
REMARK  141  A    between atoms: _327  and  _328
REMARK  142  A    between atoms: _331  and  _333
REMARK  143  A    between atoms: _333  and  _334
REMARK  144  A    between atoms: _333  and  _336
REMARK  145  A    between atoms: _336  and  _337
REMARK  146  A    between atoms: _339  and  _341
REMARK  147  A    between atoms: _341  and  _342
REMARK  148  A    between atoms: _341  and  _344
REMARK  149  A    between atoms: _344  and  _345
REMARK  150  A    between atoms: _348  and  _350
REMARK  151  A    between atoms: _350  and  _351
REMARK  152  A    between atoms: _350  and  _353
REMARK  153  A    between atoms: _353  and  _354
REMARK  154  A    between atoms: _357  and  _359
REMARK  155  A    between atoms: _359  and  _360
REMARK  156  A    between atoms: _359  and  _362
REMARK  157  A    between atoms: _362  and  _363
REMARK  158  A    between atoms: _363  and  _364
REMARK  159  A    between atoms: _367  and  _369
REMARK  160  A    between atoms: _369  and  _370
REMARK  161  A    between atoms: _369  and  _372
REMARK  162  A    between atoms: _372  and  _373
REMARK  163  A    between atoms: _375  and  _377
REMARK  164  A    between atoms: _377  and  _378
REMARK  165  A    between atoms: _377  and  _380
REMARK  166  A    between atoms: _380  and  _381
REMARK  167  A    between atoms: _384  and  _386
REMARK  168  A    between atoms: _386  and  _387
REMARK  169  A    between atoms: _389  and  _391
REMARK  170  A    between atoms: _391  and  _392
REMARK  171  A    between atoms: _391  and  _394
REMARK  172  A    between atoms: _394  and  _395
REMARK  173  A    between atoms: _398  and  _400
REMARK  174  A    between atoms: _400  and  _401
REMARK  175  A    between atoms: _400  and  _403
REMARK  176  A    between atoms: _403  and  _404
REMARK  177  A    between atoms: _410  and  _412
REMARK  178  A    between atoms: _412  and  _413
REMARK  179  A    between atoms: _412  and  _415
REMARK  180  A    between atoms: _415  and  _416
REMARK  181  A    between atoms: _422  and  _424
REMARK  182  A    between atoms: _424  and  _425
REMARK  183  A    between atoms: _424  and  _427
REMARK  184  A    between atoms: _427  and  _428
REMARK  185  A    between atoms: _431  and  _433
REMARK  186  A    between atoms: _433  and  _434
REMARK  187  A    between atoms: _433  and  _436
REMARK  188  A    between atoms: _436  and  _437
REMARK  189  A    between atoms: _440  and  _442
REMARK  190  A    between atoms: _442  and  _443
REMARK  191  A    between atoms: _442  and  _445
REMARK  192  A    between atoms: _445  and  _446
REMARK  193  A    between atoms: _452  and  _454
REMARK  194  A    between atoms: _454  and  _455
REMARK  195  A    between atoms: _454  and  _457
REMARK  196  A    between atoms: _457  and  _458
REMARK  197  A    between atoms: _463  and  _465
REMARK  198  A    between atoms: _465  and  _466
REMARK  199  A    between atoms: _465  and  _468
REMARK  200  A    between atoms: _468  and  _469
REMARK  201  A    between atoms: _469  and  _470
REMARK  202  A    between atoms: _473  and  _474
REMARK  203  A    between atoms: _479  and  _481
REMARK  204  A    between atoms: _481  and  _482
REMARK  205  A    between atoms: _484  and  _486
REMARK  206  A    between atoms: _486  and  _487
REMARK  207  A    between atoms: _490  and  _492
REMARK  208  A    between atoms: _492  and  _493
REMARK  209  A    between atoms: _492  and  _495
REMARK  210  A    between atoms: _495  and  _496
REMARK  211  A    between atoms: _499  and  _501
REMARK  212  A    between atoms: _501  and  _502
REMARK  213  A    between atoms: _504  and  _506
REMARK  214  A    between atoms: _506  and  _507
REMARK  215  A    between atoms: _510  and  _512
REMARK  216  A    between atoms: _512  and  _513
REMARK  217  A    between atoms: _512  and  _515
REMARK  218  A    between atoms: _518  and  _520
REMARK  219  A    between atoms: _520  and  _521
REMARK  220  A    between atoms: _520  and  _523
REMARK  221  A    between atoms: _523  and  _524
REMARK  222  A    between atoms: _527  and  _529
REMARK  223  A    between atoms: _529  and  _530
REMARK  224  A    between atoms: _529  and  _532
REMARK  225  A    between atoms: _532  and  _533
REMARK  226  A    between atoms: _533  and  _534
REMARK  227  A    between atoms: _536  and  _538
REMARK  228  A    between atoms: _538  and  _539
REMARK  229  A    between atoms: _538  and  _541
REMARK  230  A    between atoms: _541  and  _542
REMARK  231  A    between atoms: _547  and  _549
REMARK  232  A    between atoms: _549  and  _550
REMARK  233  A    between atoms: _549  and  _552
REMARK  234  A    between atoms: _552  and  _553
REMARK                            x       y       z     vdW  Elec       q    Type
REMARK                         _______ _______ _______ _____ _____    ______ ____
ROOT
ATOM      1  CB  PHE A   1      50.324 -49.934  10.488  0.00  0.00    +0.051 C 
ENDROOT
BRANCH   1   2
ATOM      2  CG  PHE A   1      50.314 -48.440  10.619  0.00  0.00    -0.020 A 
ATOM      3  CD2 PHE A   1      51.481 -47.746  10.901  0.00  0.00    -0.004 A 
ATOM      4  CE2 PHE A   1      51.473 -46.357  11.021  0.00  0.00    -0.000 A 
ATOM      5  CZ  PHE A   1      50.290 -45.653  10.859  0.00  0.00    -0.000 A 
ATOM      6  CE1 PHE A   1      49.113 -46.341  10.575  0.00  0.00    -0.000 A 
ATOM      7  CD1 PHE A   1      49.132 -47.725  10.458  0.00  0.00    -0.004 A 
ENDBRANCH   1   2
BRANCH   1   8
ATOM      8  CA  PHE A   1      50.348 -50.667  11.832  0.00  0.00    +0.137 C 
BRANCH   8   9
ATOM      9  N   PHE A   1      51.717 -50.870  12.284  0.00  0.00    -0.239 NA
ATOM     10  H   PHE A   1      52.513 -50.590  11.676  0.00  0.00    +0.142 HD
ENDBRANCH   8   9
BRANCH   8  11
ATOM     11  C   PHE A   1      49.624 -52.005  11.738  0.00  0.00    +0.224 C 
ATOM     12  O   PHE A   1      48.497 -52.154  12.215  0.00  0.00    -0.287 OA
ENDBRANCH   8  11
ENDBRANCH   1   8
TORSDOF 4
REMARK  Name = ../refined-set-2016/3ppm/3ppm_pocket.pdb
REMARK  234 active torsions:
REMARK  status: ('A' for Active; 'I' for Inactive)
REMARK    1  A    between atoms: _1  and  _3
REMARK    2  A    between atoms: _3  and  _4
REMARK    3  A    between atoms: _3  and  _6
REMARK    4  A    between atoms: _6  and  _7
REMARK    5  A    between atoms: _7  and  _8
REMARK    6  A    between atoms: _8  and  _9
REMARK    7  A    between atoms: _9  and  _10
REMARK    8  A    between atoms: _14  and  _16
REMARK    9  A    between atoms: _16  and  _17
REMARK   10  A    between atoms: _16  and  _19
REMARK   11  A    between atoms: _19  and  _20
REMARK   12  A    between atoms: _20  and  _21
REMARK   13  A    between atoms: _24  and  _26
REMARK   14  A    between atoms: _26  and  _27
REMARK   15  A    between atoms: _26  and  _29
REMARK   16  A    between atoms: _31  and  _33
REMARK   17  A    between atoms: _33  and  _34
REMARK   18  A    between atoms: _33  and  _36
REMARK   19  A    between atoms: _36  and  _37
REMARK   20  A    between atoms: _43  and  _45
REMARK   21  A    between atoms: _45  and  _46
REMARK   22  A    between atoms: _45  and  _48
REMARK   23  A    between atoms: _48  and  _49
REMARK   24  A    between atoms: _52  and  _54
REMARK   25  A    between atoms: _54  and  _55
REMARK   26  A    between atoms: _54  and  _57
REMARK   27  A    between atoms: _61  and  _62
REMARK   28  A    between atoms: _67  and  _69
REMARK   29  A    between atoms: _69  and  _70
REMARK   30  A    between atoms: _69  and  _72
REMARK   31  A    between atoms: _72  and  _73
REMARK   32  A    between atoms: _75  and  _77
REMARK   33  A    between atoms: _77  and  _78
REMARK   34  A    between atoms: _77  and  _80
REMARK   35  A    between atoms: _80  and  _81
REMARK   36  A    between atoms: _81  and  _82
REMARK   37  A    between atoms: _84  and  _86
REMARK   38  A    between atoms: _86  and  _87
REMARK   39  A    between atoms: _86  and  _89
REMARK   40  A    between atoms: _89  and  _90
REMARK   41  A    between atoms: _96  and  _98
REMARK   42  A    between atoms: _98  and  _99
REMARK   43  A    between atoms: _98  and  _101
REMARK   44  A    between atoms: _101  and  _102
REMARK   45  A    between atoms: _104  and  _106
REMARK   46  A    between atoms: _106  and  _107
REMARK   47  A    between atoms: _106  and  _109
REMARK   48  A    between atoms: _109  and  _110
REMARK   49  A    between atoms: _115  and  _116
REMARK   50  A    between atoms: _118  and  _120
REMARK   51  A    between atoms: _120  and  _121
REMARK   52  A    between atoms: _120  and  _123
REMARK   53  A    between atoms: _123  and  _124
REMARK   54  A    between atoms: _127  and  _129
REMARK   55  A    between atoms: _129  and  _130
REMARK   56  A    between atoms: _132  and  _134
REMARK   57  A    between atoms: _134  and  _135
REMARK   58  A    between atoms: _134  and  _137
REMARK   59  A    between atoms: _137  and  _138
REMARK   60  A    between atoms: _140  and  _142
REMARK   61  A    between atoms: _142  and  _143
REMARK   62  A    between atoms: _142  and  _145
REMARK   63  A    between atoms: _145  and  _146
REMARK   64  A    between atoms: _148  and  _150
REMARK   65  A    between atoms: _150  and  _151
REMARK   66  A    between atoms: _153  and  _155
REMARK   67  A    between atoms: _155  and  _156
REMARK   68  A    between atoms: _155  and  _158
REMARK   69  A    between atoms: _158  and  _159
REMARK   70  A    between atoms: _162  and  _164
REMARK   71  A    between atoms: _164  and  _165
REMARK   72  A    between atoms: _164  and  _167
REMARK   73  A    between atoms: _167  and  _168
REMARK   74  A    between atoms: _171  and  _173
REMARK   75  A    between atoms: _173  and  _174
REMARK   76  A    between atoms: _173  and  _176
REMARK   77  A    between atoms: _176  and  _177
REMARK   78  A    between atoms: _180  and  _182
REMARK   79  A    between atoms: _182  and  _183
REMARK   80  A    between atoms: _185  and  _187
REMARK   81  A    between atoms: _187  and  _188
REMARK   82  A    between atoms: _190  and  _192
REMARK   83  A    between atoms: _192  and  _193
REMARK   84  A    between atoms: _192  and  _195
REMARK   85  A    between atoms: _195  and  _196
REMARK   86  A    between atoms: _198  and  _200
REMARK   87  A    between atoms: _200  and  _201
REMARK   88  A    between atoms: _200  and  _203
REMARK   89  A    between atoms: _203  and  _204
REMARK   90  A    between atoms: _207  and  _209
REMARK   91  A    between atoms: _209  and  _210
REMARK   92  A    between atoms: _209  and  _212
REMARK   93  A    between atoms: _212  and  _213
REMARK   94  A    between atoms: _213  and  _214
REMARK   95  A    between atoms: _214  and  _215
REMARK   96  A    between atoms: _224  and  _226
REMARK   97  A    between atoms: _226  and  _227
REMARK   98  A    between atoms: _226  and  _229
REMARK   99  A    between atoms: _229  and  _230
REMARK  100  A    between atoms: _236  and  _238
REMARK  101  A    between atoms: _238  and  _239
REMARK  102  A    between atoms: _238  and  _241
REMARK  103  A    between atoms: _241  and  _242
REMARK  104  A    between atoms: _242  and  _243
REMARK  105  A    between atoms: _243  and  _244
REMARK  106  A    between atoms: _244  and  _245
REMARK  107  A    between atoms: _249  and  _251
REMARK  108  A    between atoms: _251  and  _252
REMARK  109  A    between atoms: _254  and  _256
REMARK  110  A    between atoms: _256  and  _257
REMARK  111  A    between atoms: _256  and  _259
REMARK  112  A    between atoms: _259  and  _260
REMARK  113  A    between atoms: _263  and  _265
REMARK  114  A    between atoms: _265  and  _266
REMARK  115  A    between atoms: _265  and  _268
REMARK  116  A    between atoms: _268  and  _269
REMARK  117  A    between atoms: _269  and  _270
REMARK  118  A    between atoms: _270  and  _271
REMARK  119  A    between atoms: _271  and  _272
REMARK  120  A    between atoms: _276  and  _278
REMARK  121  A    between atoms: _278  and  _279
REMARK  122  A    between atoms: _281  and  _283
REMARK  123  A    between atoms: _283  and  _284
REMARK  124  A    between atoms: _283  and  _286
REMARK  125  A    between atoms: _288  and  _290
REMARK  126  A    between atoms: _290  and  _291
REMARK  127  A    between atoms: _290  and  _293
REMARK  128  A    between atoms: _296  and  _298
REMARK  129  A    between atoms: _298  and  _299
REMARK  130  A    between atoms: _298  and  _301
REMARK  131  A    between atoms: _301  and  _302
REMARK  132  A    between atoms: _307  and  _308
REMARK  133  A    between atoms: _310  and  _312
REMARK  134  A    between atoms: _312  and  _313
REMARK  135  A    between atoms: _312  and  _315
REMARK  136  A    between atoms: _315  and  _316
REMARK  137  A    between atoms: _316  and  _317
REMARK  138  A    between atoms: _322  and  _324
REMARK  139  A    between atoms: _324  and  _325
REMARK  140  A    between atoms: _324  and  _327
REMARK  141  A    between atoms: _327  and  _328
REMARK  142  A    between atoms: _331  and  _333
REMARK  143  A    between atoms: _333  and  _334
REMARK  144  A    between atoms: _333  and  _336
REMARK  145  A    between atoms: _336  and  _337
REMARK  146  A    between atoms: _339  and  _341
REMARK  147  A    between atoms: _341  and  _342
REMARK  148  A    between atoms: _341  and  _344
REMARK  149  A    between atoms: _344  and  _345
REMARK  150  A    between atoms: _348  and  _350
REMARK  151  A    between atoms: _350  and  _351
REMARK  152  A    between atoms: _350  and  _353
REMARK  153  A    between atoms: _353  and  _354
REMARK  154  A    between atoms: _357  and  _359
REMARK  155  A    between atoms: _359  and  _360
REMARK  156  A    between atoms: _359  and  _362
REMARK  157  A    between atoms: _362  and  _363
REMARK  158  A    between atoms: _363  and  _364
REMARK  159  A    between atoms: _367  and  _369
REMARK  160  A    between atoms: _369  and  _370
REMARK  161  A    between atoms: _369  and  _372
REMARK  162  A    between atoms: _372  and  _373
REMARK  163  A    between atoms: _375  and  _377
REMARK  164  A    between atoms: _377  and  _378
REMARK  165  A    between atoms: _377  and  _380
REMARK  166  A    between atoms: _380  and  _381
REMARK  167  A    between atoms: _384  and  _386
REMARK  168  A    between atoms: _386  and  _387
REMARK  169  A    between atoms: _389  and  _391
REMARK  170  A    between atoms: _391  and  _392
REMARK  171  A    between atoms: _391  and  _394
REMARK  172  A    between atoms: _394  and  _395
REMARK  173  A    between atoms: _398  and  _400
REMARK  174  A    between atoms: _400  and  _401
REMARK  175  A    between atoms: _400  and  _403
REMARK  176  A    between atoms: _403  and  _404
REMARK  177  A    between atoms: _410  and  _412
REMARK  178  A    between atoms: _412  and  _413
REMARK  179  A    between atoms: _412  and  _415
REMARK  180  A    between atoms: _415  and  _416
REMARK  181  A    between atoms: _422  and  _424
REMARK  182  A    between atoms: _424  and  _425
REMARK  183  A    between atoms: _424  and  _427
REMARK  184  A    between atoms: _427  and  _428
REMARK  185  A    between atoms: _431  and  _433
REMARK  186  A    between atoms: _433  and  _434
REMARK  187  A    between atoms: _433  and  _436
REMARK  188  A    between atoms: _436  and  _437
REMARK  189  A    between atoms: _440  and  _442
REMARK  190  A    between atoms: _442  and  _443
REMARK  191  A    between atoms: _442  and  _445
REMARK  192  A    between atoms: _445  and  _446
REMARK  193  A    between atoms: _452  and  _454
REMARK  194  A    between atoms: _454  and  _455
REMARK  195  A    between atoms: _454  and  _457
REMARK  196  A    between atoms: _457  and  _458
REMARK  197  A    between atoms: _463  and  _465
REMARK  198  A    between atoms: _465  and  _466
REMARK  199  A    between atoms: _465  and  _468
REMARK  200  A    between atoms: _468  and  _469
REMARK  201  A    between atoms: _469  and  _470
REMARK  202  A    between atoms: _473  and  _474
REMARK  203  A    between atoms: _479  and  _481
REMARK  204  A    between atoms: _481  and  _482
REMARK  205  A    between atoms: _484  and  _486
REMARK  206  A    between atoms: _486  and  _487
REMARK  207  A    between atoms: _490  and  _492
REMARK  208  A    between atoms: _492  and  _493
REMARK  209  A    between atoms: _492  and  _495
REMARK  210  A    between atoms: _495  and  _496
REMARK  211  A    between atoms: _499  and  _501
REMARK  212  A    between atoms: _501  and  _502
REMARK  213  A    between atoms: _504  and  _506
REMARK  214  A    between atoms: _506  and  _507
REMARK  215  A    between atoms: _510  and  _512
REMARK  216  A    between atoms: _512  and  _513
REMARK  217  A    between atoms: _512  and  _515
REMARK  218  A    between atoms: _518  and  _520
REMARK  219  A    between atoms: _520  and  _521
REMARK  220  A    between atoms: _520  and  _523
REMARK  221  A    between atoms: _523  and  _524
REMARK  222  A    between atoms: _527  and  _529
REMARK  223  A    between atoms: _529  and  _530
REMARK  224  A    between atoms: _529  and  _532
REMARK  225  A    between atoms: _532  and  _533
REMARK  226  A    between atoms: _533  and  _534
REMARK  227  A    between atoms: _536  and  _538
REMARK  228  A    between atoms: _538  and  _539
REMARK  229  A    between atoms: _538  and  _541
REMARK  230  A    between atoms: _541  and  _542
REMARK  231  A    between atoms: _547  and  _549
REMARK  232  A    between atoms: _549  and  _550
REMARK  233  A    between atoms: _549  and  _552
REMARK  234  A    between atoms: _552  and  _553
REMARK                            x       y       z     vdW  Elec       q    Type
REMARK                         _______ _______ _______ _____ _____    ______ ____
ROOT
ATOM      1  C   ASN A   1      46.153 -52.719  14.965  0.00  0.00    +0.239 C 
ATOM      2  O   ASN A   1      45.205 -52.100  15.434  0.00  0.00    -0.274 OA
ATOM      3  N   MET A   2      46.086 -53.385  13.820  0.00  0.00    -0.298 N 
ATOM      4  H   MET A   2      46.950 -53.814  13.431  0.00  0.00    +0.150 HD
ENDROOT
BRANCH   1   5
ATOM      5  CA  ASN A   1      47.486 -52.789  15.700  0.00  0.00    +0.154 C 
BRANCH   5   6
ATOM      6  N   ASN A   1      48.500 -53.562  14.996  0.00  0.00    -0.238 NA
ATOM      7  H   ASN A   1      49.110 -53.088  14.300  0.00  0.00    +0.142 HD
ENDBRANCH   5   6
BRANCH   5   8
ATOM      8  CB  ASN A   1      48.020 -51.393  16.044  0.00  0.00    +0.111 C 
BRANCH   8   9
ATOM      9  CG  ASN A   1      49.010 -51.430  17.194  0.00  0.00    +0.221 C 
ATOM     10  OD1 ASN A   1      48.608 -51.455  18.358  0.00  0.00    -0.275 OA
ATOM     11  ND2 ASN A   1      50.309 -51.463  16.878  0.00  0.00    -0.329 N 
ATOM     12 HD21 ASN A   1      51.026 -51.512  17.630  0.00  0.00    +0.145 HD
ATOM     13 HD22 ASN A   1      50.602 -51.440  15.880  0.00  0.00    +0.145 HD
ENDBRANCH   8   9
ENDBRANCH   5   8
ENDBRANCH   1   5
BRANCH   3  14
ATOM     14  CA  MET A   2      44.828 -53.531  13.091  0.00  0.00    +0.138 C 
BRANCH  14  15
ATOM     15  C   MET A   2      44.165 -54.884  13.379  0.00  0.00    +0.227 C 
ATOM     16  O   MET A   2      43.328 -55.350  12.612  0.00  0.00    -0.286 OA
ENDBRANCH  14  15
BRANCH  14  17
ATOM     17  CB  MET A   2      45.090 -53.384  11.586  0.00  0.00    +0.039 C 
BRANCH  17  18
ATOM     18  CG  MET A   2      45.599 -51.999  11.205  0.00  0.00    +0.060 C 
BRANCH  18  19
ATOM     19  SD  MET A   2      46.318 -51.926   9.536  0.00  0.00    -0.139 S 
ATOM     20  CE  MET A   2      44.855 -52.046   8.524  0.00  0.00    +0.069 C 
ENDBRANCH  18  19
ENDBRANCH  17  18
ENDBRANCH  14  17
ENDBRANCH   3  14
TORSDOF 9
REMARK  Name = ../refined-set-2016/3ppm/3ppm_pocket.pdb
REMARK  234 active torsions:
REMARK  status: ('A' for Active; 'I' for Inactive)
REMARK    1  A    between atoms: _1  and  _3
REMARK    2  A    between atoms: _3  and  _4
REMARK    3  A    between atoms: _3  and  _6
REMARK    4  A    between atoms: _6  and  _7
REMARK    5  A    between atoms: _7  and  _8
REMARK    6  A    between atoms: _8  and  _9
REMARK    7  A    between atoms: _9  and  _10
REMARK    8  A    between atoms: _14  and  _16
REMARK    9  A    between atoms: _16  and  _17
REMARK   10  A    between atoms: _16  and  _19
REMARK   11  A    between atoms: _19  and  _20
REMARK   12  A    between atoms: _20  and  _21
REMARK   13  A    between atoms: _24  and  _26
REMARK   14  A    between atoms: _26  and  _27
REMARK   15  A    between atoms: _26  and  _29
REMARK   16  A    between atoms: _31  and  _33
REMARK   17  A    between atoms: _33  and  _34
REMARK   18  A    between atoms: _33  and  _36
REMARK   19  A    between atoms: _36  and  _37
REMARK   20  A    between atoms: _43  and  _45
REMARK   21  A    between atoms: _45  and  _46
REMARK   22  A    between atoms: _45  and  _48
REMARK   23  A    between atoms: _48  and  _49
REMARK   24  A    between atoms: _52  and  _54
REMARK   25  A    between atoms: _54  and  _55
REMARK   26  A    between atoms: _54  and  _57
REMARK   27  A    between atoms: _61  and  _62
REMARK   28  A    between atoms: _67  and  _69
REMARK   29  A    between atoms: _69  and  _70
REMARK   30  A    between atoms: _69  and  _72
REMARK   31  A    between atoms: _72  and  _73
REMARK   32  A    between atoms: _75  and  _77
REMARK   33  A    between atoms: _77  and  _78
REMARK   34  A    between atoms: _77  and  _80
REMARK   35  A    between atoms: _80  and  _81
REMARK   36  A    between atoms: _81  and  _82
REMARK   37  A    between atoms: _84  and  _86
REMARK   38  A    between atoms: _86  and  _87
REMARK   39  A    between atoms: _86  and  _89
REMARK   40  A    between atoms: _89  and  _90
REMARK   41  A    between atoms: _96  and  _98
REMARK   42  A    between atoms: _98  and  _99
REMARK   43  A    between atoms: _98  and  _101
REMARK   44  A    between atoms: _101  and  _102
REMARK   45  A    between atoms: _104  and  _106
REMARK   46  A    between atoms: _106  and  _107
REMARK   47  A    between atoms: _106  and  _109
REMARK   48  A    between atoms: _109  and  _110
REMARK   49  A    between atoms: _115  and  _116
REMARK   50  A    between atoms: _118  and  _120
REMARK   51  A    between atoms: _120  and  _121
REMARK   52  A    between atoms: _120  and  _123
REMARK   53  A    between atoms: _123  and  _124
REMARK   54  A    between atoms: _127  and  _129
REMARK   55  A    between atoms: _129  and  _130
REMARK   56  A    between atoms: _132  and  _134
REMARK   57  A    between atoms: _134  and  _135
REMARK   58  A    between atoms: _134  and  _137
REMARK   59  A    between atoms: _137  and  _138
REMARK   60  A    between atoms: _140  and  _142
REMARK   61  A    between atoms: _142  and  _143
REMARK   62  A    between atoms: _142  and  _145
REMARK   63  A    between atoms: _145  and  _146
REMARK   64  A    between atoms: _148  and  _150
REMARK   65  A    between atoms: _150  and  _151
REMARK   66  A    between atoms: _153  and  _155
REMARK   67  A    between atoms: _155  and  _156
REMARK   68  A    between atoms: _155  and  _158
REMARK   69  A    between atoms: _158  and  _159
REMARK   70  A    between atoms: _162  and  _164
REMARK   71  A    between atoms: _164  and  _165
REMARK   72  A    between atoms: _164  and  _167
REMARK   73  A    between atoms: _167  and  _168
REMARK   74  A    between atoms: _171  and  _173
REMARK   75  A    between atoms: _173  and  _174
REMARK   76  A    between atoms: _173  and  _176
REMARK   77  A    between atoms: _176  and  _177
REMARK   78  A    between atoms: _180  and  _182
REMARK   79  A    between atoms: _182  and  _183
REMARK   80  A    between atoms: _185  and  _187
REMARK   81  A    between atoms: _187  and  _188
REMARK   82  A    between atoms: _190  and  _192
REMARK   83  A    between atoms: _192  and  _193
REMARK   84  A    between atoms: _192  and  _195
REMARK   85  A    between atoms: _195  and  _196
REMARK   86  A    between atoms: _198  and  _200
REMARK   87  A    between atoms: _200  and  _201
REMARK   88  A    between atoms: _200  and  _203
REMARK   89  A    between atoms: _203  and  _204
REMARK   90  A    between atoms: _207  and  _209
REMARK   91  A    between atoms: _209  and  _210
REMARK   92  A    between atoms: _209  and  _212
REMARK   93  A    between atoms: _212  and  _213
REMARK   94  A    between atoms: _213  and  _214
REMARK   95  A    between atoms: _214  and  _215
REMARK   96  A    between atoms: _224  and  _226
REMARK   97  A    between atoms: _226  and  _227
REMARK   98  A    between atoms: _226  and  _229
REMARK   99  A    between atoms: _229  and  _230
REMARK  100  A    between atoms: _236  and  _238
REMARK  101  A    between atoms: _238  and  _239
REMARK  102  A    between atoms: _238  and  _241
REMARK  103  A    between atoms: _241  and  _242
REMARK  104  A    between atoms: _242  and  _243
REMARK  105  A    between atoms: _243  and  _244
REMARK  106  A    between atoms: _244  and  _245
REMARK  107  A    between atoms: _249  and  _251
REMARK  108  A    between atoms: _251  and  _252
REMARK  109  A    between atoms: _254  and  _256
REMARK  110  A    between atoms: _256  and  _257
REMARK  111  A    between atoms: _256  and  _259
REMARK  112  A    between atoms: _259  and  _260
REMARK  113  A    between atoms: _263  and  _265
REMARK  114  A    between atoms: _265  and  _266
REMARK  115  A    between atoms: _265  and  _268
REMARK  116  A    between atoms: _268  and  _269
REMARK  117  A    between atoms: _269  and  _270
REMARK  118  A    between atoms: _270  and  _271
REMARK  119  A    between atoms: _271  and  _272
REMARK  120  A    between atoms: _276  and  _278
REMARK  121  A    between atoms: _278  and  _279
REMARK  122  A    between atoms: _281  and  _283
REMARK  123  A    between atoms: _283  and  _284
REMARK  124  A    between atoms: _283  and  _286
REMARK  125  A    between atoms: _288  and  _290
REMARK  126  A    between atoms: _290  and  _291
REMARK  127  A    between atoms: _290  and  _293
REMARK  128  A    between atoms: _296  and  _298
REMARK  129  A    between atoms: _298  and  _299
REMARK  130  A    between atoms: _298  and  _301
REMARK  131  A    between atoms: _301  and  _302
REMARK  132  A    between atoms: _307  and  _308
REMARK  133  A    between atoms: _310  and  _312
REMARK  134  A    between atoms: _312  and  _313
REMARK  135  A    between atoms: _312  and  _315
REMARK  136  A    between atoms: _315  and  _316
REMARK  137  A    between atoms: _316  and  _317
REMARK  138  A    between atoms: _322  and  _324
REMARK  139  A    between atoms: _324  and  _325
REMARK  140  A    between atoms: _324  and  _327
REMARK  141  A    between atoms: _327  and  _328
REMARK  142  A    between atoms: _331  and  _333
REMARK  143  A    between atoms: _333  and  _334
REMARK  144  A    between atoms: _333  and  _336
REMARK  145  A    between atoms: _336  and  _337
REMARK  146  A    between atoms: _339  and  _341
REMARK  147  A    between atoms: _341  and  _342
REMARK  148  A    between atoms: _341  and  _344
REMARK  149  A    between atoms: _344  and  _345
REMARK  150  A    between atoms: _348  and  _350
REMARK  151  A    between atoms: _350  and  _351
REMARK  152  A    between atoms: _350  and  _353
REMARK  153  A    between atoms: _353  and  _354
REMARK  154  A    between atoms: _357  and  _359
REMARK  155  A    between atoms: _359  and  _360
REMARK  156  A    between atoms: _359  and  _362
REMARK  157  A    between atoms: _362  and  _363
REMARK  158  A    between atoms: _363  and  _364
REMARK  159  A    between atoms: _367  and  _369
REMARK  160  A    between atoms: _369  and  _370
REMARK  161  A    between atoms: _369  and  _372
REMARK  162  A    between atoms: _372  and  _373
REMARK  163  A    between atoms: _375  and  _377
REMARK  164  A    between atoms: _377  and  _378
REMARK  165  A    between atoms: _377  and  _380
REMARK  166  A    between atoms: _380  and  _381
REMARK  167  A    between atoms: _384  and  _386
REMARK  168  A    between atoms: _386  and  _387
REMARK  169  A    between atoms: _389  and  _391
REMARK  170  A    between atoms: _391  and  _392
REMARK  171  A    between atoms: _391  and  _394
REMARK  172  A    between atoms: _394  and  _395
REMARK  173  A    between atoms: _398  and  _400
REMARK  174  A    between atoms: _400  and  _401
REMARK  175  A    between atoms: _400  and  _403
REMARK  176  A    between atoms: _403  and  _404
REMARK  177  A    between atoms: _410  and  _412
REMARK  178  A    between atoms: _412  and  _413
REMARK  179  A    between atoms: _412  and  _415
REMARK  180  A    between atoms: _415  and  _416
REMARK  181  A    between atoms: _422  and  _424
REMARK  182  A    between atoms: _424  and  _425
REMARK  183  A    between atoms: _424  and  _427
REMARK  184  A    between atoms: _427  and  _428
REMARK  185  A    between atoms: _431  and  _433
REMARK  186  A    between atoms: _433  and  _434
REMARK  187  A    between atoms: _433  and  _436
REMARK  188  A    between atoms: _436  and  _437
REMARK  189  A    between atoms: _440  and  _442
REMARK  190  A    between atoms: _442  and  _443
REMARK  191  A    between atoms: _442  and  _445
REMARK  192  A    between atoms: _445  and  _446
REMARK  193  A    between atoms: _452  and  _454
REMARK  194  A    between atoms: _454  and  _455
REMARK  195  A    between atoms: _454  and  _457
REMARK  196  A    between atoms: _457  and  _458
REMARK  197  A    between atoms: _463  and  _465
REMARK  198  A    between atoms: _465  and  _466
REMARK  199  A    between atoms: _465  and  _468
REMARK  200  A    between atoms: _468  and  _469
REMARK  201  A    between atoms: _469  and  _470
REMARK  202  A    between atoms: _473  and  _474
REMARK  203  A    between atoms: _479  and  _481
REMARK  204  A    between atoms: _481  and  _482
REMARK  205  A    between atoms: _484  and  _486
REMARK  206  A    between atoms: _486  and  _487
REMARK  207  A    between atoms: _490  and  _492
REMARK  208  A    between atoms: _492  and  _493
REMARK  209  A    between atoms: _492  and  _495
REMARK  210  A    between atoms: _495  and  _496
REMARK  211  A    between atoms: _499  and  _501
REMARK  212  A    between atoms: _501  and  _502
REMARK  213  A    between atoms: _504  and  _506
REMARK  214  A    between atoms: _506  and  _507
REMARK  215  A    between atoms: _510  and  _512
REMARK  216  A    between atoms: _512  and  _513
REMARK  217  A    between atoms: _512  and  _515
REMARK  218  A    between atoms: _518  and  _520
REMARK  219  A    between atoms: _520  and  _521
REMARK  220  A    between atoms: _520  and  _523
REMARK  221  A    between atoms: _523  and  _524
REMARK  222  A    between atoms: _527  and  _529
REMARK  223  A    between atoms: _529  and  _530
REMARK  224  A    between atoms: _529  and  _532
REMARK  225  A    between atoms: _532  and  _533
REMARK  226  A    between atoms: _533  and  _534
REMARK  227  A    between atoms: _536  and  _538
REMARK  228  A    between atoms: _538  and  _539
REMARK  229  A    between atoms: _538  and  _541
REMARK  230  A    between atoms: _541  and  _542
REMARK  231  A    between atoms: _547  and  _549
REMARK  232  A    between atoms: _549  and  _550
REMARK  233  A    between atoms: _549  and  _552
REMARK  234  A    between atoms: _552  and  _553
REMARK                            x       y       z     vdW  Elec       q    Type
REMARK                         _______ _______ _______ _____ _____    ______ ____
ROOT
ATOM      1  C   PRO A   1      47.240 -43.116  -0.392  0.00  0.00    +0.239 C 
ATOM      2  O   PRO A   1      47.722 -43.364   0.722  0.00  0.00    -0.274 OA
ATOM      3  N   GLY A   2      46.560 -44.015  -1.099  0.00  0.00    -0.297 N 
ATOM      4  H   GLY A   2      46.229 -43.770  -2.054  0.00  0.00    +0.150 HD
ENDROOT
BRANCH   1   6
ATOM      5  N   PRO A   1      47.670 -41.810  -2.485  0.00  0.00    -0.210 NA
ATOM      6  CA  PRO A   1      47.433 -41.740  -1.031  0.00  0.00    +0.149 C 
ATOM      7  CB  PRO A   1      46.137 -40.916  -0.938  0.00  0.00    +0.028 C 
ATOM      8  CG  PRO A   1      46.294 -39.933  -2.092  0.00  0.00    +0.021 C 
ATOM      9  CD  PRO A   1      46.891 -40.785  -3.217  0.00  0.00    +0.089 C 
ENDBRANCH   1   6
BRANCH   3  10
ATOM     10  CA  GLY A   2      46.272 -45.334  -0.560  0.00  0.00    +0.163 C 
BRANCH  10  11
ATOM     11  C   GLY A   2      47.515 -46.188  -0.386  0.00  0.00    +0.229 C 
ATOM     12  O   GLY A   2      47.464 -47.247   0.240  0.00  0.00    -0.286 OA
ENDBRANCH  10  11
ENDBRANCH   3  10
TORSDOF 3
REMARK  Name = ../refined-set-2016/3ppm/3ppm_pocket.pdb
REMARK  234 active torsions:
REMARK  status: ('A' for Active; 'I' for Inactive)
REMARK    1  A    between atoms: _1  and  _3
REMARK    2  A    between atoms: _3  and  _4
REMARK    3  A    between atoms: _3  and  _6
REMARK    4  A    between atoms: _6  and  _7
REMARK    5  A    between atoms: _7  and  _8
REMARK    6  A    between atoms: _8  and  _9
REMARK    7  A    between atoms: _9  and  _10
REMARK    8  A    between atoms: _14  and  _16
REMARK    9  A    between atoms: _16  and  _17
REMARK   10  A    between atoms: _16  and  _19
REMARK   11  A    between atoms: _19  and  _20
REMARK   12  A    between atoms: _20  and  _21
REMARK   13  A    between atoms: _24  and  _26
REMARK   14  A    between atoms: _26  and  _27
REMARK   15  A    between atoms: _26  and  _29
REMARK   16  A    between atoms: _31  and  _33
REMARK   17  A    between atoms: _33  and  _34
REMARK   18  A    between atoms: _33  and  _36
REMARK   19  A    between atoms: _36  and  _37
REMARK   20  A    between atoms: _43  and  _45
REMARK   21  A    between atoms: _45  and  _46
REMARK   22  A    between atoms: _45  and  _48
REMARK   23  A    between atoms: _48  and  _49
REMARK   24  A    between atoms: _52  and  _54
REMARK   25  A    between atoms: _54  and  _55
REMARK   26  A    between atoms: _54  and  _57
REMARK   27  A    between atoms: _61  and  _62
REMARK   28  A    between atoms: _67  and  _69
REMARK   29  A    between atoms: _69  and  _70
REMARK   30  A    between atoms: _69  and  _72
REMARK   31  A    between atoms: _72  and  _73
REMARK   32  A    between atoms: _75  and  _77
REMARK   33  A    between atoms: _77  and  _78
REMARK   34  A    between atoms: _77  and  _80
REMARK   35  A    between atoms: _80  and  _81
REMARK   36  A    between atoms: _81  and  _82
REMARK   37  A    between atoms: _84  and  _86
REMARK   38  A    between atoms: _86  and  _87
REMARK   39  A    between atoms: _86  and  _89
REMARK   40  A    between atoms: _89  and  _90
REMARK   41  A    between atoms: _96  and  _98
REMARK   42  A    between atoms: _98  and  _99
REMARK   43  A    between atoms: _98  and  _101
REMARK   44  A    between atoms: _101  and  _102
REMARK   45  A    between atoms: _104  and  _106
REMARK   46  A    between atoms: _106  and  _107
REMARK   47  A    between atoms: _106  and  _109
REMARK   48  A    between atoms: _109  and  _110
REMARK   49  A    between atoms: _115  and  _116
REMARK   50  A    between atoms: _118  and  _120
REMARK   51  A    between atoms: _120  and  _121
REMARK   52  A    between atoms: _120  and  _123
REMARK   53  A    between atoms: _123  and  _124
REMARK   54  A    between atoms: _127  and  _129
REMARK   55  A    between atoms: _129  and  _130
REMARK   56  A    between atoms: _132  and  _134
REMARK   57  A    between atoms: _134  and  _135
REMARK   58  A    between atoms: _134  and  _137
REMARK   59  A    between atoms: _137  and  _138
REMARK   60  A    between atoms: _140  and  _142
REMARK   61  A    between atoms: _142  and  _143
REMARK   62  A    between atoms: _142  and  _145
REMARK   63  A    between atoms: _145  and  _146
REMARK   64  A    between atoms: _148  and  _150
REMARK   65  A    between atoms: _150  and  _151
REMARK   66  A    between atoms: _153  and  _155
REMARK   67  A    between atoms: _155  and  _156
REMARK   68  A    between atoms: _155  and  _158
REMARK   69  A    between atoms: _158  and  _159
REMARK   70  A    between atoms: _162  and  _164
REMARK   71  A    between atoms: _164  and  _165
REMARK   72  A    between atoms: _164  and  _167
REMARK   73  A    between atoms: _167  and  _168
REMARK   74  A    between atoms: _171  and  _173
REMARK   75  A    between atoms: _173  and  _174
REMARK   76  A    between atoms: _173  and  _176
REMARK   77  A    between atoms: _176  and  _177
REMARK   78  A    between atoms: _180  and  _182
REMARK   79  A    between atoms: _182  and  _183
REMARK   80  A    between atoms: _185  and  _187
REMARK   81  A    between atoms: _187  and  _188
REMARK   82  A    between atoms: _190  and  _192
REMARK   83  A    between atoms: _192  and  _193
REMARK   84  A    between atoms: _192  and  _195
REMARK   85  A    between atoms: _195  and  _196
REMARK   86  A    between atoms: _198  and  _200
REMARK   87  A    between atoms: _200  and  _201
REMARK   88  A    between atoms: _200  and  _203
REMARK   89  A    between atoms: _203  and  _204
REMARK   90  A    between atoms: _207  and  _209
REMARK   91  A    between atoms: _209  and  _210
REMARK   92  A    between atoms: _209  and  _212
REMARK   93  A    between atoms: _212  and  _213
REMARK   94  A    between atoms: _213  and  _214
REMARK   95  A    between atoms: _214  and  _215
REMARK   96  A    between atoms: _224  and  _226
REMARK   97  A    between atoms: _226  and  _227
REMARK   98  A    between atoms: _226  and  _229
REMARK   99  A    between atoms: _229  and  _230
REMARK  100  A    between atoms: _236  and  _238
REMARK  101  A    between atoms: _238  and  _239
REMARK  102  A    between atoms: _238  and  _241
REMARK  103  A    between atoms: _241  and  _242
REMARK  104  A    between atoms: _242  and  _243
REMARK  105  A    between atoms: _243  and  _244
REMARK  106  A    between atoms: _244  and  _245
REMARK  107  A    between atoms: _249  and  _251
REMARK  108  A    between atoms: _251  and  _252
REMARK  109  A    between atoms: _254  and  _256
REMARK  110  A    between atoms: _256  and  _257
REMARK  111  A    between atoms: _256  and  _259
REMARK  112  A    between atoms: _259  and  _260
REMARK  113  A    between atoms: _263  and  _265
REMARK  114  A    between atoms: _265  and  _266
REMARK  115  A    between atoms: _265  and  _268
REMARK  116  A    between atoms: _268  and  _269
REMARK  117  A    between atoms: _269  and  _270
REMARK  118  A    between atoms: _270  and  _271
REMARK  119  A    between atoms: _271  and  _272
REMARK  120  A    between atoms: _276  and  _278
REMARK  121  A    between atoms: _278  and  _279
REMARK  122  A    between atoms: _281  and  _283
REMARK  123  A    between atoms: _283  and  _284
REMARK  124  A    between atoms: _283  and  _286
REMARK  125  A    between atoms: _288  and  _290
REMARK  126  A    between atoms: _290  and  _291
REMARK  127  A    between atoms: _290  and  _293
REMARK  128  A    between atoms: _296  and  _298
REMARK  129  A    between atoms: _298  and  _299
REMARK  130  A    between atoms: _298  and  _301
REMARK  131  A    between atoms: _301  and  _302
REMARK  132  A    between atoms: _307  and  _308
REMARK  133  A    between atoms: _310  and  _312
REMARK  134  A    between atoms: _312  and  _313
REMARK  135  A    between atoms: _312  and  _315
REMARK  136  A    between atoms: _315  and  _316
REMARK  137  A    between atoms: _316  and  _317
REMARK  138  A    between atoms: _322  and  _324
REMARK  139  A    between atoms: _324  and  _325
REMARK  140  A    between atoms: _324  and  _327
REMARK  141  A    between atoms: _327  and  _328
REMARK  142  A    between atoms: _331  and  _333
REMARK  143  A    between atoms: _333  and  _334
REMARK  144  A    between atoms: _333  and  _336
REMARK  145  A    between atoms: _336  and  _337
REMARK  146  A    between atoms: _339  and  _341
REMARK  147  A    between atoms: _341  and  _342
REMARK  148  A    between atoms: _341  and  _344
REMARK  149  A    between atoms: _344  and  _345
REMARK  150  A    between atoms: _348  and  _350
REMARK  151  A    between atoms: _350  and  _351
REMARK  152  A    between atoms: _350  and  _353
REMARK  153  A    between atoms: _353  and  _354
REMARK  154  A    between atoms: _357  and  _359
REMARK  155  A    between atoms: _359  and  _360
REMARK  156  A    between atoms: _359  and  _362
REMARK  157  A    between atoms: _362  and  _363
REMARK  158  A    between atoms: _363  and  _364
REMARK  159  A    between atoms: _367  and  _369
REMARK  160  A    between atoms: _369  and  _370
REMARK  161  A    between atoms: _369  and  _372
REMARK  162  A    between atoms: _372  and  _373
REMARK  163  A    between atoms: _375  and  _377
REMARK  164  A    between atoms: _377  and  _378
REMARK  165  A    between atoms: _377  and  _380
REMARK  166  A    between atoms: _380  and  _381
REMARK  167  A    between atoms: _384  and  _386
REMARK  168  A    between atoms: _386  and  _387
REMARK  169  A    between atoms: _389  and  _391
REMARK  170  A    between atoms: _391  and  _392
REMARK  171  A    between atoms: _391  and  _394
REMARK  172  A    between atoms: _394  and  _395
REMARK  173  A    between atoms: _398  and  _400
REMARK  174  A    between atoms: _400  and  _401
REMARK  175  A    between atoms: _400  and  _403
REMARK  176  A    between atoms: _403  and  _404
REMARK  177  A    between atoms: _410  and  _412
REMARK  178  A    between atoms: _412  and  _413
REMARK  179  A    between atoms: _412  and  _415
REMARK  180  A    between atoms: _415  and  _416
REMARK  181  A    between atoms: _422  and  _424
REMARK  182  A    between atoms: _424  and  _425
REMARK  183  A    between atoms: _424  and  _427
REMARK  184  A    between atoms: _427  and  _428
REMARK  185  A    between atoms: _431  and  _433
REMARK  186  A    between atoms: _433  and  _434
REMARK  187  A    between atoms: _433  and  _436
REMARK  188  A    between atoms: _436  and  _437
REMARK  189  A    between atoms: _440  and  _442
REMARK  190  A    between atoms: _442  and  _443
REMARK  191  A    between atoms: _442  and  _445
REMARK  192  A    between atoms: _445  and  _446
REMARK  193  A    between atoms: _452  and  _454
REMARK  194  A    between atoms: _454  and  _455
REMARK  195  A    between atoms: _454  and  _457
REMARK  196  A    between atoms: _457  and  _458
REMARK  197  A    between atoms: _463  and  _465
REMARK  198  A    between atoms: _465  and  _466
REMARK  199  A    between atoms: _465  and  _468
REMARK  200  A    between atoms: _468  and  _469
REMARK  201  A    between atoms: _469  and  _470
REMARK  202  A    between atoms: _473  and  _474
REMARK  203  A    between atoms: _479  and  _481
REMARK  204  A    between atoms: _481  and  _482
REMARK  205  A    between atoms: _484  and  _486
REMARK  206  A    between atoms: _486  and  _487
REMARK  207  A    between atoms: _490  and  _492
REMARK  208  A    between atoms: _492  and  _493
REMARK  209  A    between atoms: _492  and  _495
REMARK  210  A    between atoms: _495  and  _496
REMARK  211  A    between atoms: _499  and  _501
REMARK  212  A    between atoms: _501  and  _502
REMARK  213  A    between atoms: _504  and  _506
REMARK  214  A    between atoms: _506  and  _507
REMARK  215  A    between atoms: _510  and  _512
REMARK  216  A    between atoms: _512  and  _513
REMARK  217  A    between atoms: _512  and  _515
REMARK  218  A    between atoms: _518  and  _520
REMARK  219  A    between atoms: _520  and  _521
REMARK  220  A    between atoms: _520  and  _523
REMARK  221  A    between atoms: _523  and  _524
REMARK  222  A    between atoms: _527  and  _529
REMARK  223  A    between atoms: _529  and  _530
REMARK  224  A    between atoms: _529  and  _532
REMARK  225  A    between atoms: _532  and  _533
REMARK  226  A    between atoms: _533  and  _534
REMARK  227  A    between atoms: _536  and  _538
REMARK  228  A    between atoms: _538  and  _539
REMARK  229  A    between atoms: _538  and  _541
REMARK  230  A    between atoms: _541  and  _542
REMARK  231  A    between atoms: _547  and  _549
REMARK  232  A    between atoms: _549  and  _550
REMARK  233  A    between atoms: _549  and  _552
REMARK  234  A    between atoms: _552  and  _553
REMARK                            x       y       z     vdW  Elec       q    Type
REMARK                         _______ _______ _______ _____ _____    ______ ____
ROOT
ATOM      1  C   THR A   2      50.299 -43.515   5.821  0.00  0.00    +0.243 C 
ATOM      2  O   THR A   2      49.689 -42.772   6.587  0.00  0.00    -0.273 OA
ATOM      3  N   GLY A   3      51.619 -43.656   5.857  0.00  0.00    -0.295 N 
ATOM      4  H   GLY A   3      52.091 -44.249   5.145  0.00  0.00    +0.150 HD
ENDROOT
BRANCH   1   5
ATOM      5  CA  THR A   2      49.554 -44.332   4.767  0.00  0.00    +0.176 C 
BRANCH   5   7
ATOM      6  C   ALA A   1      50.635 -43.424   2.784  0.00  0.00    +0.238 C 
ATOM      7  N   THR A   2      50.299 -44.476   3.517  0.00  0.00    -0.295 N 
ATOM      8  H   THR A   2      50.572 -45.427   3.195  0.00  0.00    +0.150 HD
ATOM      9  O   ALA A   1      50.395 -42.269   3.130  0.00  0.00    -0.274 OA
BRANCH   6  10
ATOM     10  CA  ALA A   1      51.310 -43.727   1.449  0.00  0.00    +0.145 C 
ATOM     11  CB  ALA A   1      51.622 -42.427   0.700  0.00  0.00    +0.028 C 
BRANCH  10  12
ATOM     12  N   ALA A   1      50.448 -44.592   0.640  0.00  0.00    -0.238 NA
ATOM     13  H   ALA A   1      49.440 -44.353   0.551  0.00  0.00    +0.142 HD
ENDBRANCH  10  12
ENDBRANCH   6  10
ENDBRANCH   5   7
BRANCH   5  14
ATOM     14  CB  THR A   2      49.200 -45.714   5.349  0.00  0.00    +0.137 C 
ATOM     15  CG2 THR A   2      48.516 -45.564   6.711  0.00  0.00    +0.034 C 
BRANCH  14  16
ATOM     16  OG1 THR A   2      48.307 -46.388   4.454  0.00  0.00    -0.382 OA
ATOM     17  HG1 THR A   2      48.746 -46.500   3.574  0.00  0.00    +0.210 HD
ENDBRANCH  14  16
ENDBRANCH   5  14
ENDBRANCH   1   5
BRANCH   3  18
ATOM     18  CA  GLY A   3      52.413 -42.992   6.878  0.00  0.00    +0.176 C 
BRANCH  18  19
ATOM     19  C   GLY A   3      52.236 -41.487   6.869  0.00  0.00    +0.243 C 
ATOM     20  O   GLY A   3      52.407 -40.836   7.895  0.00  0.00    -0.273 OA
ATOM     21  N   ALA A   4      51.885 -40.941   5.705  0.00  0.00    -0.297 N 
ATOM     22  H   ALA A   4      51.649 -41.565   4.907  0.00  0.00    +0.150 HD
BRANCH  21  23
ATOM     23  CA  ALA A   4      51.821 -39.499   5.514  0.00  0.00    +0.149 C 
ATOM     24  CB  ALA A   4      51.907 -39.140   3.991  0.00  0.00    +0.031 C 
BRANCH  23  25
ATOM     25  C   ALA A   4      50.596 -38.852   6.174  0.00  0.00    +0.241 C 
ATOM     26  N   VAL A   5      49.727 -39.655   6.777  0.00  0.00    -0.298 N 
ATOM     27  H   VAL A   5      49.818 -40.687   6.683  0.00  0.00    +0.150 HD
ATOM     28  O   ALA A   4      50.447 -37.631   6.151  0.00  0.00    -0.273 OA
BRANCH  26  29
ATOM     29  CA  VAL A   5      48.643 -39.085   7.572  0.00  0.00    +0.137 C 
BRANCH  29  30
ATOM     30  CB  VAL A   5      47.495 -40.094   7.791  0.00  0.00    +0.026 C 
ATOM     31  CG2 VAL A   5      47.947 -41.232   8.725  0.00  0.00    +0.002 C 
ATOM     32  CG1 VAL A   5      47.009 -40.646   6.448  0.00  0.00    +0.002 C 
ENDBRANCH  29  30
BRANCH  29  33
ATOM     33  C   VAL A   5      49.147 -38.617   8.942  0.00  0.00    +0.227 C 
ATOM     34  O   VAL A   5      48.375 -38.129   9.761  0.00  0.00    -0.286 OA
ENDBRANCH  29  33
ENDBRANCH  26  29
ENDBRANCH  23  25
ENDBRANCH  21  23
ENDBRANCH  18  19
ENDBRANCH   3  18
TORSDOF 13
REMARK  Name = ../refined-set-2016/3ppm/3ppm_pocket.pdb
REMARK  234 active torsions:
REMARK  status: ('A' for Active; 'I' for Inactive)
REMARK    1  A    between atoms: _1  and  _3
REMARK    2  A    between atoms: _3  and  _4
REMARK    3  A    between atoms: _3  and  _6
REMARK    4  A    between atoms: _6  and  _7
REMARK    5  A    between atoms: _7  and  _8
REMARK    6  A    between atoms: _8  and  _9
REMARK    7  A    between atoms: _9  and  _10
REMARK    8  A    between atoms: _14  and  _16
REMARK    9  A    between atoms: _16  and  _17
REMARK   10  A    between atoms: _16  and  _19
REMARK   11  A    between atoms: _19  and  _20
REMARK   12  A    between atoms: _20  and  _21
REMARK   13  A    between atoms: _24  and  _26
REMARK   14  A    between atoms: _26  and  _27
REMARK   15  A    between atoms: _26  and  _29
REMARK   16  A    between atoms: _31  and  _33
REMARK   17  A    between atoms: _33  and  _34
REMARK   18  A    between atoms: _33  and  _36
REMARK   19  A    between atoms: _36  and  _37
REMARK   20  A    between atoms: _43  and  _45
REMARK   21  A    between atoms: _45  and  _46
REMARK   22  A    between atoms: _45  and  _48
REMARK   23  A    between atoms: _48  and  _49
REMARK   24  A    between atoms: _52  and  _54
REMARK   25  A    between atoms: _54  and  _55
REMARK   26  A    between atoms: _54  and  _57
REMARK   27  A    between atoms: _61  and  _62
REMARK   28  A    between atoms: _67  and  _69
REMARK   29  A    between atoms: _69  and  _70
REMARK   30  A    between atoms: _69  and  _72
REMARK   31  A    between atoms: _72  and  _73
REMARK   32  A    between atoms: _75  and  _77
REMARK   33  A    between atoms: _77  and  _78
REMARK   34  A    between atoms: _77  and  _80
REMARK   35  A    between atoms: _80  and  _81
REMARK   36  A    between atoms: _81  and  _82
REMARK   37  A    between atoms: _84  and  _86
REMARK   38  A    between atoms: _86  and  _87
REMARK   39  A    between atoms: _86  and  _89
REMARK   40  A    between atoms: _89  and  _90
REMARK   41  A    between atoms: _96  and  _98
REMARK   42  A    between atoms: _98  and  _99
REMARK   43  A    between atoms: _98  and  _101
REMARK   44  A    between atoms: _101  and  _102
REMARK   45  A    between atoms: _104  and  _106
REMARK   46  A    between atoms: _106  and  _107
REMARK   47  A    between atoms: _106  and  _109
REMARK   48  A    between atoms: _109  and  _110
REMARK   49  A    between atoms: _115  and  _116
REMARK   50  A    between atoms: _118  and  _120
REMARK   51  A    between atoms: _120  and  _121
REMARK   52  A    between atoms: _120  and  _123
REMARK   53  A    between atoms: _123  and  _124
REMARK   54  A    between atoms: _127  and  _129
REMARK   55  A    between atoms: _129  and  _130
REMARK   56  A    between atoms: _132  and  _134
REMARK   57  A    between atoms: _134  and  _135
REMARK   58  A    between atoms: _134  and  _137
REMARK   59  A    between atoms: _137  and  _138
REMARK   60  A    between atoms: _140  and  _142
REMARK   61  A    between atoms: _142  and  _143
REMARK   62  A    between atoms: _142  and  _145
REMARK   63  A    between atoms: _145  and  _146
REMARK   64  A    between atoms: _148  and  _150
REMARK   65  A    between atoms: _150  and  _151
REMARK   66  A    between atoms: _153  and  _155
REMARK   67  A    between atoms: _155  and  _156
REMARK   68  A    between atoms: _155  and  _158
REMARK   69  A    between atoms: _158  and  _159
REMARK   70  A    between atoms: _162  and  _164
REMARK   71  A    between atoms: _164  and  _165
REMARK   72  A    between atoms: _164  and  _167
REMARK   73  A    between atoms: _167  and  _168
REMARK   74  A    between atoms: _171  and  _173
REMARK   75  A    between atoms: _173  and  _174
REMARK   76  A    between atoms: _173  and  _176
REMARK   77  A    between atoms: _176  and  _177
REMARK   78  A    between atoms: _180  and  _182
REMARK   79  A    between atoms: _182  and  _183
REMARK   80  A    between atoms: _185  and  _187
REMARK   81  A    between atoms: _187  and  _188
REMARK   82  A    between atoms: _190  and  _192
REMARK   83  A    between atoms: _192  and  _193
REMARK   84  A    between atoms: _192  and  _195
REMARK   85  A    between atoms: _195  and  _196
REMARK   86  A    between atoms: _198  and  _200
REMARK   87  A    between atoms: _200  and  _201
REMARK   88  A    between atoms: _200  and  _203
REMARK   89  A    between atoms: _203  and  _204
REMARK   90  A    between atoms: _207  and  _209
REMARK   91  A    between atoms: _209  and  _210
REMARK   92  A    between atoms: _209  and  _212
REMARK   93  A    between atoms: _212  and  _213
REMARK   94  A    between atoms: _213  and  _214
REMARK   95  A    between atoms: _214  and  _215
REMARK   96  A    between atoms: _224  and  _226
REMARK   97  A    between atoms: _226  and  _227
REMARK   98  A    between atoms: _226  and  _229
REMARK   99  A    between atoms: _229  and  _230
REMARK  100  A    between atoms: _236  and  _238
REMARK  101  A    between atoms: _238  and  _239
REMARK  102  A    between atoms: _238  and  _241
REMARK  103  A    between atoms: _241  and  _242
REMARK  104  A    between atoms: _242  and  _243
REMARK  105  A    between atoms: _243  and  _244
REMARK  106  A    between atoms: _244  and  _245
REMARK  107  A    between atoms: _249  and  _251
REMARK  108  A    between atoms: _251  and  _252
REMARK  109  A    between atoms: _254  and  _256
REMARK  110  A    between atoms: _256  and  _257
REMARK  111  A    between atoms: _256  and  _259
REMARK  112  A    between atoms: _259  and  _260
REMARK  113  A    between atoms: _263  and  _265
REMARK  114  A    between atoms: _265  and  _266
REMARK  115  A    between atoms: _265  and  _268
REMARK  116  A    between atoms: _268  and  _269
REMARK  117  A    between atoms: _269  and  _270
REMARK  118  A    between atoms: _270  and  _271
REMARK  119  A    between atoms: _271  and  _272
REMARK  120  A    between atoms: _276  and  _278
REMARK  121  A    between atoms: _278  and  _279
REMARK  122  A    between atoms: _281  and  _283
REMARK  123  A    between atoms: _283  and  _284
REMARK  124  A    between atoms: _283  and  _286
REMARK  125  A    between atoms: _288  and  _290
REMARK  126  A    between atoms: _290  and  _291
REMARK  127  A    between atoms: _290  and  _293
REMARK  128  A    between atoms: _296  and  _298
REMARK  129  A    between atoms: _298  and  _299
REMARK  130  A    between atoms: _298  and  _301
REMARK  131  A    between atoms: _301  and  _302
REMARK  132  A    between atoms: _307  and  _308
REMARK  133  A    between atoms: _310  and  _312
REMARK  134  A    between atoms: _312  and  _313
REMARK  135  A    between atoms: _312  and  _315
REMARK  136  A    between atoms: _315  and  _316
REMARK  137  A    between atoms: _316  and  _317
REMARK  138  A    between atoms: _322  and  _324
REMARK  139  A    between atoms: _324  and  _325
REMARK  140  A    between atoms: _324  and  _327
REMARK  141  A    between atoms: _327  and  _328
REMARK  142  A    between atoms: _331  and  _333
REMARK  143  A    between atoms: _333  and  _334
REMARK  144  A    between atoms: _333  and  _336
REMARK  145  A    between atoms: _336  and  _337
REMARK  146  A    between atoms: _339  and  _341
REMARK  147  A    between atoms: _341  and  _342
REMARK  148  A    between atoms: _341  and  _344
REMARK  149  A    between atoms: _344  and  _345
REMARK  150  A    between atoms: _348  and  _350
REMARK  151  A    between atoms: _350  and  _351
REMARK  152  A    between atoms: _350  and  _353
REMARK  153  A    between atoms: _353  and  _354
REMARK  154  A    between atoms: _357  and  _359
REMARK  155  A    between atoms: _359  and  _360
REMARK  156  A    between atoms: _359  and  _362
REMARK  157  A    between atoms: _362  and  _363
REMARK  158  A    between atoms: _363  and  _364
REMARK  159  A    between atoms: _367  and  _369
REMARK  160  A    between atoms: _369  and  _370
REMARK  161  A    between atoms: _369  and  _372
REMARK  162  A    between atoms: _372  and  _373
REMARK  163  A    between atoms: _375  and  _377
REMARK  164  A    between atoms: _377  and  _378
REMARK  165  A    between atoms: _377  and  _380
REMARK  166  A    between atoms: _380  and  _381
REMARK  167  A    between atoms: _384  and  _386
REMARK  168  A    between atoms: _386  and  _387
REMARK  169  A    between atoms: _389  and  _391
REMARK  170  A    between atoms: _391  and  _392
REMARK  171  A    between atoms: _391  and  _394
REMARK  172  A    between atoms: _394  and  _395
REMARK  173  A    between atoms: _398  and  _400
REMARK  174  A    between atoms: _400  and  _401
REMARK  175  A    between atoms: _400  and  _403
REMARK  176  A    between atoms: _403  and  _404
REMARK  177  A    between atoms: _410  and  _412
REMARK  178  A    between atoms: _412  and  _413
REMARK  179  A    between atoms: _412  and  _415
REMARK  180  A    between atoms: _415  and  _416
REMARK  181  A    between atoms: _422  and  _424
REMARK  182  A    between atoms: _424  and  _425
REMARK  183  A    between atoms: _424  and  _427
REMARK  184  A    between atoms: _427  and  _428
REMARK  185  A    between atoms: _431  and  _433
REMARK  186  A    between atoms: _433  and  _434
REMARK  187  A    between atoms: _433  and  _436
REMARK  188  A    between atoms: _436  and  _437
REMARK  189  A    between atoms: _440  and  _442
REMARK  190  A    between atoms: _442  and  _443
REMARK  191  A    between atoms: _442  and  _445
REMARK  192  A    between atoms: _445  and  _446
REMARK  193  A    between atoms: _452  and  _454
REMARK  194  A    between atoms: _454  and  _455
REMARK  195  A    between atoms: _454  and  _457
REMARK  196  A    between atoms: _457  and  _458
REMARK  197  A    between atoms: _463  and  _465
REMARK  198  A    between atoms: _465  and  _466
REMARK  199  A    between atoms: _465  and  _468
REMARK  200  A    between atoms: _468  and  _469
REMARK  201  A    between atoms: _469  and  _470
REMARK  202  A    between atoms: _473  and  _474
REMARK  203  A    between atoms: _479  and  _481
REMARK  204  A    between atoms: _481  and  _482
REMARK  205  A    between atoms: _484  and  _486
REMARK  206  A    between atoms: _486  and  _487
REMARK  207  A    between atoms: _490  and  _492
REMARK  208  A    between atoms: _492  and  _493
REMARK  209  A    between atoms: _492  and  _495
REMARK  210  A    between atoms: _495  and  _496
REMARK  211  A    between atoms: _499  and  _501
REMARK  212  A    between atoms: _501  and  _502
REMARK  213  A    between atoms: _504  and  _506
REMARK  214  A    between atoms: _506  and  _507
REMARK  215  A    between atoms: _510  and  _512
REMARK  216  A    between atoms: _512  and  _513
REMARK  217  A    between atoms: _512  and  _515
REMARK  218  A    between atoms: _518  and  _520
REMARK  219  A    between atoms: _520  and  _521
REMARK  220  A    between atoms: _520  and  _523
REMARK  221  A    between atoms: _523  and  _524
REMARK  222  A    between atoms: _527  and  _529
REMARK  223  A    between atoms: _529  and  _530
REMARK  224  A    between atoms: _529  and  _532
REMARK  225  A    between atoms: _532  and  _533
REMARK  226  A    between atoms: _533  and  _534
REMARK  227  A    between atoms: _536  and  _538
REMARK  228  A    between atoms: _538  and  _539
REMARK  229  A    between atoms: _538  and  _541
REMARK  230  A    between atoms: _541  and  _542
REMARK  231  A    between atoms: _547  and  _549
REMARK  232  A    between atoms: _549  and  _550
REMARK  233  A    between atoms: _549  and  _552
REMARK  234  A    between atoms: _552  and  _553
REMARK                            x       y       z     vdW  Elec       q    Type
REMARK                         _______ _______ _______ _____ _____    ______ ____
ROOT
ATOM      1  C   THR A   1      46.277 -35.576  11.582  0.00  0.00    +0.241 C 
ATOM      2  O   THR A   1      45.569 -35.118  12.484  0.00  0.00    -0.274 OA
ATOM      3  N   MET A   2      46.525 -36.877  11.449  0.00  0.00    -0.298 N 
ATOM      4  H   MET A   2      47.222 -37.206  10.751  0.00  0.00    +0.150 HD
ENDROOT
BRANCH   1   5
ATOM      5  CA  THR A   1      46.889 -34.641  10.545  0.00  0.00    +0.172 C 
BRANCH   5   6
ATOM      6  N   THR A   1      48.278 -34.942  10.234  0.00  0.00    -0.236 NA
ATOM      7  H   THR A   1      48.501 -35.662   9.517  0.00  0.00    +0.142 HD
ENDBRANCH   5   6
BRANCH   5   8
ATOM      8  CB  THR A   1      46.007 -34.677   9.280  0.00  0.00    +0.135 C 
ATOM      9  CG2 THR A   1      46.321 -33.495   8.364  0.00  0.00    +0.034 C 
BRANCH   8  10
ATOM     10  OG1 THR A   1      46.245 -35.894   8.567  0.00  0.00    -0.383 OA
ATOM     11  HG1 THR A   1      47.199 -35.941   8.306  0.00  0.00    +0.210 HD
ENDBRANCH   8  10
ENDBRANCH   5   8
ENDBRANCH   1   5
BRANCH   3  12
ATOM     12  CA  MET A   2      45.812 -37.846  12.291  0.00  0.00    +0.138 C 
BRANCH  12  13
ATOM     13  C   MET A   2      46.168 -37.656  13.763  0.00  0.00    +0.227 C 
ATOM     14  O   MET A   2      45.373 -37.989  14.636  0.00  0.00    -0.286 OA
ENDBRANCH  12  13
BRANCH  12  15
ATOM     15  CB  MET A   2      46.078 -39.296  11.865  0.00  0.00    +0.039 C 
BRANCH  15  16
ATOM     16  CG  MET A   2      45.155 -40.327  12.569  0.00  0.00    +0.060 C 
BRANCH  16  17
ATOM     17  SD  MET A   2      45.234 -41.941  11.767  0.00  0.00    -0.139 S 
ATOM     18  CE  MET A   2      46.916 -42.427  12.128  0.00  0.00    +0.069 C 
ENDBRANCH  16  17
ENDBRANCH  15  16
ENDBRANCH  12  15
ENDBRANCH   3  12
TORSDOF 9
REMARK  Name = ../refined-set-2016/3ppm/3ppm_pocket.pdb
REMARK  234 active torsions:
REMARK  status: ('A' for Active; 'I' for Inactive)
REMARK    1  A    between atoms: _1  and  _3
REMARK    2  A    between atoms: _3  and  _4
REMARK    3  A    between atoms: _3  and  _6
REMARK    4  A    between atoms: _6  and  _7
REMARK    5  A    between atoms: _7  and  _8
REMARK    6  A    between atoms: _8  and  _9
REMARK    7  A    between atoms: _9  and  _10
REMARK    8  A    between atoms: _14  and  _16
REMARK    9  A    between atoms: _16  and  _17
REMARK   10  A    between atoms: _16  and  _19
REMARK   11  A    between atoms: _19  and  _20
REMARK   12  A    between atoms: _20  and  _21
REMARK   13  A    between atoms: _24  and  _26
REMARK   14  A    between atoms: _26  and  _27
REMARK   15  A    between atoms: _26  and  _29
REMARK   16  A    between atoms: _31  and  _33
REMARK   17  A    between atoms: _33  and  _34
REMARK   18  A    between atoms: _33  and  _36
REMARK   19  A    between atoms: _36  and  _37
REMARK   20  A    between atoms: _43  and  _45
REMARK   21  A    between atoms: _45  and  _46
REMARK   22  A    between atoms: _45  and  _48
REMARK   23  A    between atoms: _48  and  _49
REMARK   24  A    between atoms: _52  and  _54
REMARK   25  A    between atoms: _54  and  _55
REMARK   26  A    between atoms: _54  and  _57
REMARK   27  A    between atoms: _61  and  _62
REMARK   28  A    between atoms: _67  and  _69
REMARK   29  A    between atoms: _69  and  _70
REMARK   30  A    between atoms: _69  and  _72
REMARK   31  A    between atoms: _72  and  _73
REMARK   32  A    between atoms: _75  and  _77
REMARK   33  A    between atoms: _77  and  _78
REMARK   34  A    between atoms: _77  and  _80
REMARK   35  A    between atoms: _80  and  _81
REMARK   36  A    between atoms: _81  and  _82
REMARK   37  A    between atoms: _84  and  _86
REMARK   38  A    between atoms: _86  and  _87
REMARK   39  A    between atoms: _86  and  _89
REMARK   40  A    between atoms: _89  and  _90
REMARK   41  A    between atoms: _96  and  _98
REMARK   42  A    between atoms: _98  and  _99
REMARK   43  A    between atoms: _98  and  _101
REMARK   44  A    between atoms: _101  and  _102
REMARK   45  A    between atoms: _104  and  _106
REMARK   46  A    between atoms: _106  and  _107
REMARK   47  A    between atoms: _106  and  _109
REMARK   48  A    between atoms: _109  and  _110
REMARK   49  A    between atoms: _115  and  _116
REMARK   50  A    between atoms: _118  and  _120
REMARK   51  A    between atoms: _120  and  _121
REMARK   52  A    between atoms: _120  and  _123
REMARK   53  A    between atoms: _123  and  _124
REMARK   54  A    between atoms: _127  and  _129
REMARK   55  A    between atoms: _129  and  _130
REMARK   56  A    between atoms: _132  and  _134
REMARK   57  A    between atoms: _134  and  _135
REMARK   58  A    between atoms: _134  and  _137
REMARK   59  A    between atoms: _137  and  _138
REMARK   60  A    between atoms: _140  and  _142
REMARK   61  A    between atoms: _142  and  _143
REMARK   62  A    between atoms: _142  and  _145
REMARK   63  A    between atoms: _145  and  _146
REMARK   64  A    between atoms: _148  and  _150
REMARK   65  A    between atoms: _150  and  _151
REMARK   66  A    between atoms: _153  and  _155
REMARK   67  A    between atoms: _155  and  _156
REMARK   68  A    between atoms: _155  and  _158
REMARK   69  A    between atoms: _158  and  _159
REMARK   70  A    between atoms: _162  and  _164
REMARK   71  A    between atoms: _164  and  _165
REMARK   72  A    between atoms: _164  and  _167
REMARK   73  A    between atoms: _167  and  _168
REMARK   74  A    between atoms: _171  and  _173
REMARK   75  A    between atoms: _173  and  _174
REMARK   76  A    between atoms: _173  and  _176
REMARK   77  A    between atoms: _176  and  _177
REMARK   78  A    between atoms: _180  and  _182
REMARK   79  A    between atoms: _182  and  _183
REMARK   80  A    between atoms: _185  and  _187
REMARK   81  A    between atoms: _187  and  _188
REMARK   82  A    between atoms: _190  and  _192
REMARK   83  A    between atoms: _192  and  _193
REMARK   84  A    between atoms: _192  and  _195
REMARK   85  A    between atoms: _195  and  _196
REMARK   86  A    between atoms: _198  and  _200
REMARK   87  A    between atoms: _200  and  _201
REMARK   88  A    between atoms: _200  and  _203
REMARK   89  A    between atoms: _203  and  _204
REMARK   90  A    between atoms: _207  and  _209
REMARK   91  A    between atoms: _209  and  _210
REMARK   92  A    between atoms: _209  and  _212
REMARK   93  A    between atoms: _212  and  _213
REMARK   94  A    between atoms: _213  and  _214
REMARK   95  A    between atoms: _214  and  _215
REMARK   96  A    between atoms: _224  and  _226
REMARK   97  A    between atoms: _226  and  _227
REMARK   98  A    between atoms: _226  and  _229
REMARK   99  A    between atoms: _229  and  _230
REMARK  100  A    between atoms: _236  and  _238
REMARK  101  A    between atoms: _238  and  _239
REMARK  102  A    between atoms: _238  and  _241
REMARK  103  A    between atoms: _241  and  _242
REMARK  104  A    between atoms: _242  and  _243
REMARK  105  A    between atoms: _243  and  _244
REMARK  106  A    between atoms: _244  and  _245
REMARK  107  A    between atoms: _249  and  _251
REMARK  108  A    between atoms: _251  and  _252
REMARK  109  A    between atoms: _254  and  _256
REMARK  110  A    between atoms: _256  and  _257
REMARK  111  A    between atoms: _256  and  _259
REMARK  112  A    between atoms: _259  and  _260
REMARK  113  A    between atoms: _263  and  _265
REMARK  114  A    between atoms: _265  and  _266
REMARK  115  A    between atoms: _265  and  _268
REMARK  116  A    between atoms: _268  and  _269
REMARK  117  A    between atoms: _269  and  _270
REMARK  118  A    between atoms: _270  and  _271
REMARK  119  A    between atoms: _271  and  _272
REMARK  120  A    between atoms: _276  and  _278
REMARK  121  A    between atoms: _278  and  _279
REMARK  122  A    between atoms: _281  and  _283
REMARK  123  A    between atoms: _283  and  _284
REMARK  124  A    between atoms: _283  and  _286
REMARK  125  A    between atoms: _288  and  _290
REMARK  126  A    between atoms: _290  and  _291
REMARK  127  A    between atoms: _290  and  _293
REMARK  128  A    between atoms: _296  and  _298
REMARK  129  A    between atoms: _298  and  _299
REMARK  130  A    between atoms: _298  and  _301
REMARK  131  A    between atoms: _301  and  _302
REMARK  132  A    between atoms: _307  and  _308
REMARK  133  A    between atoms: _310  and  _312
REMARK  134  A    between atoms: _312  and  _313
REMARK  135  A    between atoms: _312  and  _315
REMARK  136  A    between atoms: _315  and  _316
REMARK  137  A    between atoms: _316  and  _317
REMARK  138  A    between atoms: _322  and  _324
REMARK  139  A    between atoms: _324  and  _325
REMARK  140  A    between atoms: _324  and  _327
REMARK  141  A    between atoms: _327  and  _328
REMARK  142  A    between atoms: _331  and  _333
REMARK  143  A    between atoms: _333  and  _334
REMARK  144  A    between atoms: _333  and  _336
REMARK  145  A    between atoms: _336  and  _337
REMARK  146  A    between atoms: _339  and  _341
REMARK  147  A    between atoms: _341  and  _342
REMARK  148  A    between atoms: _341  and  _344
REMARK  149  A    between atoms: _344  and  _345
REMARK  150  A    between atoms: _348  and  _350
REMARK  151  A    between atoms: _350  and  _351
REMARK  152  A    between atoms: _350  and  _353
REMARK  153  A    between atoms: _353  and  _354
REMARK  154  A    between atoms: _357  and  _359
REMARK  155  A    between atoms: _359  and  _360
REMARK  156  A    between atoms: _359  and  _362
REMARK  157  A    between atoms: _362  and  _363
REMARK  158  A    between atoms: _363  and  _364
REMARK  159  A    between atoms: _367  and  _369
REMARK  160  A    between atoms: _369  and  _370
REMARK  161  A    between atoms: _369  and  _372
REMARK  162  A    between atoms: _372  and  _373
REMARK  163  A    between atoms: _375  and  _377
REMARK  164  A    between atoms: _377  and  _378
REMARK  165  A    between atoms: _377  and  _380
REMARK  166  A    between atoms: _380  and  _381
REMARK  167  A    between atoms: _384  and  _386
REMARK  168  A    between atoms: _386  and  _387
REMARK  169  A    between atoms: _389  and  _391
REMARK  170  A    between atoms: _391  and  _392
REMARK  171  A    between atoms: _391  and  _394
REMARK  172  A    between atoms: _394  and  _395
REMARK  173  A    between atoms: _398  and  _400
REMARK  174  A    between atoms: _400  and  _401
REMARK  175  A    between atoms: _400  and  _403
REMARK  176  A    between atoms: _403  and  _404
REMARK  177  A    between atoms: _410  and  _412
REMARK  178  A    between atoms: _412  and  _413
REMARK  179  A    between atoms: _412  and  _415
REMARK  180  A    between atoms: _415  and  _416
REMARK  181  A    between atoms: _422  and  _424
REMARK  182  A    between atoms: _424  and  _425
REMARK  183  A    between atoms: _424  and  _427
REMARK  184  A    between atoms: _427  and  _428
REMARK  185  A    between atoms: _431  and  _433
REMARK  186  A    between atoms: _433  and  _434
REMARK  187  A    between atoms: _433  and  _436
REMARK  188  A    between atoms: _436  and  _437
REMARK  189  A    between atoms: _440  and  _442
REMARK  190  A    between atoms: _442  and  _443
REMARK  191  A    between atoms: _442  and  _445
REMARK  192  A    between atoms: _445  and  _446
REMARK  193  A    between atoms: _452  and  _454
REMARK  194  A    between atoms: _454  and  _455
REMARK  195  A    between atoms: _454  and  _457
REMARK  196  A    between atoms: _457  and  _458
REMARK  197  A    between atoms: _463  and  _465
REMARK  198  A    between atoms: _465  and  _466
REMARK  199  A    between atoms: _465  and  _468
REMARK  200  A    between atoms: _468  and  _469
REMARK  201  A    between atoms: _469  and  _470
REMARK  202  A    between atoms: _473  and  _474
REMARK  203  A    between atoms: _479  and  _481
REMARK  204  A    between atoms: _481  and  _482
REMARK  205  A    between atoms: _484  and  _486
REMARK  206  A    between atoms: _486  and  _487
REMARK  207  A    between atoms: _490  and  _492
REMARK  208  A    between atoms: _492  and  _493
REMARK  209  A    between atoms: _492  and  _495
REMARK  210  A    between atoms: _495  and  _496
REMARK  211  A    between atoms: _499  and  _501
REMARK  212  A    between atoms: _501  and  _502
REMARK  213  A    between atoms: _504  and  _506
REMARK  214  A    between atoms: _506  and  _507
REMARK  215  A    between atoms: _510  and  _512
REMARK  216  A    between atoms: _512  and  _513
REMARK  217  A    between atoms: _512  and  _515
REMARK  218  A    between atoms: _518  and  _520
REMARK  219  A    between atoms: _520  and  _521
REMARK  220  A    between atoms: _520  and  _523
REMARK  221  A    between atoms: _523  and  _524
REMARK  222  A    between atoms: _527  and  _529
REMARK  223  A    between atoms: _529  and  _530
REMARK  224  A    between atoms: _529  and  _532
REMARK  225  A    between atoms: _532  and  _533
REMARK  226  A    between atoms: _533  and  _534
REMARK  227  A    between atoms: _536  and  _538
REMARK  228  A    between atoms: _538  and  _539
REMARK  229  A    between atoms: _538  and  _541
REMARK  230  A    between atoms: _541  and  _542
REMARK  231  A    between atoms: _547  and  _549
REMARK  232  A    between atoms: _549  and  _550
REMARK  233  A    between atoms: _549  and  _552
REMARK  234  A    between atoms: _552  and  _553
REMARK                            x       y       z     vdW  Elec       q    Type
REMARK                         _______ _______ _______ _____ _____    ______ ____
ROOT
ATOM      1  CB  ASN A   1      41.937 -37.467  14.365  0.00  0.00    +0.110 C 
ENDROOT
BRANCH   1   2
ATOM      2  CG  ASN A   1      41.763 -36.702  13.074  0.00  0.00    +0.221 C 
ATOM      3  ND2 ASN A   1      40.579 -36.122  12.875  0.00  0.00    -0.329 N 
ATOM      4 HD21 ASN A   1      39.829 -36.212  13.590  0.00  0.00    +0.145 HD
ATOM      5 HD22 ASN A   1      40.405 -35.580  12.005  0.00  0.00    +0.145 HD
ATOM      6  OD1 ASN A   1      42.682 -36.629  12.265  0.00  0.00    -0.275 OA
ENDBRANCH   1   2
BRANCH   1   7
ATOM      7  CA  ASN A   1      42.200 -36.546  15.554  0.00  0.00    +0.142 C 
BRANCH   7   8
ATOM      8  N   ASN A   1      43.402 -35.759  15.340  0.00  0.00    -0.239 NA
ATOM      9  H   ASN A   1      44.061 -36.010  14.576  0.00  0.00    +0.142 HD
ENDBRANCH   7   8
BRANCH   7  10
ATOM     10  C   ASN A   1      42.327 -37.382  16.826  0.00  0.00    +0.225 C 
ATOM     11  O   ASN A   1      41.409 -37.439  17.645  0.00  0.00    -0.287 OA
ENDBRANCH   7  10
ENDBRANCH   1   7
TORSDOF 4
REMARK  Name = ../refined-set-2016/3ppm/3ppm_pocket.pdb
REMARK  234 active torsions:
REMARK  status: ('A' for Active; 'I' for Inactive)
REMARK    1  A    between atoms: _1  and  _3
REMARK    2  A    between atoms: _3  and  _4
REMARK    3  A    between atoms: _3  and  _6
REMARK    4  A    between atoms: _6  and  _7
REMARK    5  A    between atoms: _7  and  _8
REMARK    6  A    between atoms: _8  and  _9
REMARK    7  A    between atoms: _9  and  _10
REMARK    8  A    between atoms: _14  and  _16
REMARK    9  A    between atoms: _16  and  _17
REMARK   10  A    between atoms: _16  and  _19
REMARK   11  A    between atoms: _19  and  _20
REMARK   12  A    between atoms: _20  and  _21
REMARK   13  A    between atoms: _24  and  _26
REMARK   14  A    between atoms: _26  and  _27
REMARK   15  A    between atoms: _26  and  _29
REMARK   16  A    between atoms: _31  and  _33
REMARK   17  A    between atoms: _33  and  _34
REMARK   18  A    between atoms: _33  and  _36
REMARK   19  A    between atoms: _36  and  _37
REMARK   20  A    between atoms: _43  and  _45
REMARK   21  A    between atoms: _45  and  _46
REMARK   22  A    between atoms: _45  and  _48
REMARK   23  A    between atoms: _48  and  _49
REMARK   24  A    between atoms: _52  and  _54
REMARK   25  A    between atoms: _54  and  _55
REMARK   26  A    between atoms: _54  and  _57
REMARK   27  A    between atoms: _61  and  _62
REMARK   28  A    between atoms: _67  and  _69
REMARK   29  A    between atoms: _69  and  _70
REMARK   30  A    between atoms: _69  and  _72
REMARK   31  A    between atoms: _72  and  _73
REMARK   32  A    between atoms: _75  and  _77
REMARK   33  A    between atoms: _77  and  _78
REMARK   34  A    between atoms: _77  and  _80
REMARK   35  A    between atoms: _80  and  _81
REMARK   36  A    between atoms: _81  and  _82
REMARK   37  A    between atoms: _84  and  _86
REMARK   38  A    between atoms: _86  and  _87
REMARK   39  A    between atoms: _86  and  _89
REMARK   40  A    between atoms: _89  and  _90
REMARK   41  A    between atoms: _96  and  _98
REMARK   42  A    between atoms: _98  and  _99
REMARK   43  A    between atoms: _98  and  _101
REMARK   44  A    between atoms: _101  and  _102
REMARK   45  A    between atoms: _104  and  _106
REMARK   46  A    between atoms: _106  and  _107
REMARK   47  A    between atoms: _106  and  _109
REMARK   48  A    between atoms: _109  and  _110
REMARK   49  A    between atoms: _115  and  _116
REMARK   50  A    between atoms: _118  and  _120
REMARK   51  A    between atoms: _120  and  _121
REMARK   52  A    between atoms: _120  and  _123
REMARK   53  A    between atoms: _123  and  _124
REMARK   54  A    between atoms: _127  and  _129
REMARK   55  A    between atoms: _129  and  _130
REMARK   56  A    between atoms: _132  and  _134
REMARK   57  A    between atoms: _134  and  _135
REMARK   58  A    between atoms: _134  and  _137
REMARK   59  A    between atoms: _137  and  _138
REMARK   60  A    between atoms: _140  and  _142
REMARK   61  A    between atoms: _142  and  _143
REMARK   62  A    between atoms: _142  and  _145
REMARK   63  A    between atoms: _145  and  _146
REMARK   64  A    between atoms: _148  and  _150
REMARK   65  A    between atoms: _150  and  _151
REMARK   66  A    between atoms: _153  and  _155
REMARK   67  A    between atoms: _155  and  _156
REMARK   68  A    between atoms: _155  and  _158
REMARK   69  A    between atoms: _158  and  _159
REMARK   70  A    between atoms: _162  and  _164
REMARK   71  A    between atoms: _164  and  _165
REMARK   72  A    between atoms: _164  and  _167
REMARK   73  A    between atoms: _167  and  _168
REMARK   74  A    between atoms: _171  and  _173
REMARK   75  A    between atoms: _173  and  _174
REMARK   76  A    between atoms: _173  and  _176
REMARK   77  A    between atoms: _176  and  _177
REMARK   78  A    between atoms: _180  and  _182
REMARK   79  A    between atoms: _182  and  _183
REMARK   80  A    between atoms: _185  and  _187
REMARK   81  A    between atoms: _187  and  _188
REMARK   82  A    between atoms: _190  and  _192
REMARK   83  A    between atoms: _192  and  _193
REMARK   84  A    between atoms: _192  and  _195
REMARK   85  A    between atoms: _195  and  _196
REMARK   86  A    between atoms: _198  and  _200
REMARK   87  A    between atoms: _200  and  _201
REMARK   88  A    between atoms: _200  and  _203
REMARK   89  A    between atoms: _203  and  _204
REMARK   90  A    between atoms: _207  and  _209
REMARK   91  A    between atoms: _209  and  _210
REMARK   92  A    between atoms: _209  and  _212
REMARK   93  A    between atoms: _212  and  _213
REMARK   94  A    between atoms: _213  and  _214
REMARK   95  A    between atoms: _214  and  _215
REMARK   96  A    between atoms: _224  and  _226
REMARK   97  A    between atoms: _226  and  _227
REMARK   98  A    between atoms: _226  and  _229
REMARK   99  A    between atoms: _229  and  _230
REMARK  100  A    between atoms: _236  and  _238
REMARK  101  A    between atoms: _238  and  _239
REMARK  102  A    between atoms: _238  and  _241
REMARK  103  A    between atoms: _241  and  _242
REMARK  104  A    between atoms: _242  and  _243
REMARK  105  A    between atoms: _243  and  _244
REMARK  106  A    between atoms: _244  and  _245
REMARK  107  A    between atoms: _249  and  _251
REMARK  108  A    between atoms: _251  and  _252
REMARK  109  A    between atoms: _254  and  _256
REMARK  110  A    between atoms: _256  and  _257
REMARK  111  A    between atoms: _256  and  _259
REMARK  112  A    between atoms: _259  and  _260
REMARK  113  A    between atoms: _263  and  _265
REMARK  114  A    between atoms: _265  and  _266
REMARK  115  A    between atoms: _265  and  _268
REMARK  116  A    between atoms: _268  and  _269
REMARK  117  A    between atoms: _269  and  _270
REMARK  118  A    between atoms: _270  and  _271
REMARK  119  A    between atoms: _271  and  _272
REMARK  120  A    between atoms: _276  and  _278
REMARK  121  A    between atoms: _278  and  _279
REMARK  122  A    between atoms: _281  and  _283
REMARK  123  A    between atoms: _283  and  _284
REMARK  124  A    between atoms: _283  and  _286
REMARK  125  A    between atoms: _288  and  _290
REMARK  126  A    between atoms: _290  and  _291
REMARK  127  A    between atoms: _290  and  _293
REMARK  128  A    between atoms: _296  and  _298
REMARK  129  A    between atoms: _298  and  _299
REMARK  130  A    between atoms: _298  and  _301
REMARK  131  A    between atoms: _301  and  _302
REMARK  132  A    between atoms: _307  and  _308
REMARK  133  A    between atoms: _310  and  _312
REMARK  134  A    between atoms: _312  and  _313
REMARK  135  A    between atoms: _312  and  _315
REMARK  136  A    between atoms: _315  and  _316
REMARK  137  A    between atoms: _316  and  _317
REMARK  138  A    between atoms: _322  and  _324
REMARK  139  A    between atoms: _324  and  _325
REMARK  140  A    between atoms: _324  and  _327
REMARK  141  A    between atoms: _327  and  _328
REMARK  142  A    between atoms: _331  and  _333
REMARK  143  A    between atoms: _333  and  _334
REMARK  144  A    between atoms: _333  and  _336
REMARK  145  A    between atoms: _336  and  _337
REMARK  146  A    between atoms: _339  and  _341
REMARK  147  A    between atoms: _341  and  _342
REMARK  148  A    between atoms: _341  and  _344
REMARK  149  A    between atoms: _344  and  _345
REMARK  150  A    between atoms: _348  and  _350
REMARK  151  A    between atoms: _350  and  _351
REMARK  152  A    between atoms: _350  and  _353
REMARK  153  A    between atoms: _353  and  _354
REMARK  154  A    between atoms: _357  and  _359
REMARK  155  A    between atoms: _359  and  _360
REMARK  156  A    between atoms: _359  and  _362
REMARK  157  A    between atoms: _362  and  _363
REMARK  158  A    between atoms: _363  and  _364
REMARK  159  A    between atoms: _367  and  _369
REMARK  160  A    between atoms: _369  and  _370
REMARK  161  A    between atoms: _369  and  _372
REMARK  162  A    between atoms: _372  and  _373
REMARK  163  A    between atoms: _375  and  _377
REMARK  164  A    between atoms: _377  and  _378
REMARK  165  A    between atoms: _377  and  _380
REMARK  166  A    between atoms: _380  and  _381
REMARK  167  A    between atoms: _384  and  _386
REMARK  168  A    between atoms: _386  and  _387
REMARK  169  A    between atoms: _389  and  _391
REMARK  170  A    between atoms: _391  and  _392
REMARK  171  A    between atoms: _391  and  _394
REMARK  172  A    between atoms: _394  and  _395
REMARK  173  A    between atoms: _398  and  _400
REMARK  174  A    between atoms: _400  and  _401
REMARK  175  A    between atoms: _400  and  _403
REMARK  176  A    between atoms: _403  and  _404
REMARK  177  A    between atoms: _410  and  _412
REMARK  178  A    between atoms: _412  and  _413
REMARK  179  A    between atoms: _412  and  _415
REMARK  180  A    between atoms: _415  and  _416
REMARK  181  A    between atoms: _422  and  _424
REMARK  182  A    between atoms: _424  and  _425
REMARK  183  A    between atoms: _424  and  _427
REMARK  184  A    between atoms: _427  and  _428
REMARK  185  A    between atoms: _431  and  _433
REMARK  186  A    between atoms: _433  and  _434
REMARK  187  A    between atoms: _433  and  _436
REMARK  188  A    between atoms: _436  and  _437
REMARK  189  A    between atoms: _440  and  _442
REMARK  190  A    between atoms: _442  and  _443
REMARK  191  A    between atoms: _442  and  _445
REMARK  192  A    between atoms: _445  and  _446
REMARK  193  A    between atoms: _452  and  _454
REMARK  194  A    between atoms: _454  and  _455
REMARK  195  A    between atoms: _454  and  _457
REMARK  196  A    between atoms: _457  and  _458
REMARK  197  A    between atoms: _463  and  _465
REMARK  198  A    between atoms: _465  and  _466
REMARK  199  A    between atoms: _465  and  _468
REMARK  200  A    between atoms: _468  and  _469
REMARK  201  A    between atoms: _469  and  _470
REMARK  202  A    between atoms: _473  and  _474
REMARK  203  A    between atoms: _479  and  _481
REMARK  204  A    between atoms: _481  and  _482
REMARK  205  A    between atoms: _484  and  _486
REMARK  206  A    between atoms: _486  and  _487
REMARK  207  A    between atoms: _490  and  _492
REMARK  208  A    between atoms: _492  and  _493
REMARK  209  A    between atoms: _492  and  _495
REMARK  210  A    between atoms: _495  and  _496
REMARK  211  A    between atoms: _499  and  _501
REMARK  212  A    between atoms: _501  and  _502
REMARK  213  A    between atoms: _504  and  _506
REMARK  214  A    between atoms: _506  and  _507
REMARK  215  A    between atoms: _510  and  _512
REMARK  216  A    between atoms: _512  and  _513
REMARK  217  A    between atoms: _512  and  _515
REMARK  218  A    between atoms: _518  and  _520
REMARK  219  A    between atoms: _520  and  _521
REMARK  220  A    between atoms: _520  and  _523
REMARK  221  A    between atoms: _523  and  _524
REMARK  222  A    between atoms: _527  and  _529
REMARK  223  A    between atoms: _529  and  _530
REMARK  224  A    between atoms: _529  and  _532
REMARK  225  A    between atoms: _532  and  _533
REMARK  226  A    between atoms: _533  and  _534
REMARK  227  A    between atoms: _536  and  _538
REMARK  228  A    between atoms: _538  and  _539
REMARK  229  A    between atoms: _538  and  _541
REMARK  230  A    between atoms: _541  and  _542
REMARK  231  A    between atoms: _547  and  _549
REMARK  232  A    between atoms: _549  and  _550
REMARK  233  A    between atoms: _549  and  _552
REMARK  234  A    between atoms: _552  and  _553
REMARK                            x       y       z     vdW  Elec       q    Type
REMARK                         _______ _______ _______ _____ _____    ______ ____
ROOT
ATOM      1  CG  TRP A   1      53.730 -46.526   3.851  0.00  0.00    -0.002 A 
ATOM      2  CD2 TRP A   1      53.157 -46.855   5.125  0.00  0.00    +0.013 A 
ATOM      3  CE3 TRP A   1      53.345 -46.373   6.424  0.00  0.00    +0.001 A 
ATOM      4  CZ3 TRP A   1      52.600 -46.932   7.454  0.00  0.00    +0.000 A 
ATOM      5  CH2 TRP A   1      51.686 -47.964   7.209  0.00  0.00    +0.001 A 
ATOM      6  CZ2 TRP A   1      51.485 -48.459   5.950  0.00  0.00    +0.017 A 
ATOM      7  CE2 TRP A   1      52.226 -47.892   4.912  0.00  0.00    +0.056 A 
ATOM      8  NE1 TRP A   1      52.233 -48.184   3.572  0.00  0.00    -0.352 N 
ATOM      9  HE1 TRP A   1      51.651 -48.909   3.107  0.00  0.00    +0.166 HD
ATOM     10  CD1 TRP A   1      53.140 -47.357   2.943  0.00  0.00    +0.068 A 
ENDROOT
BRANCH   1  11
ATOM     11  CB  TRP A   1      54.775 -45.475   3.574  0.00  0.00    +0.053 C 
BRANCH  11  12
ATOM     12  CA  TRP A   1      55.387 -45.580   2.170  0.00  0.00    +0.137 C 
BRANCH  12  13
ATOM     13  N   TRP A   1      56.129 -46.828   2.023  0.00  0.00    -0.239 NA
ATOM     14  H   TRP A   1      56.304 -47.423   2.858  0.00  0.00    +0.142 HD
ENDBRANCH  12  13
BRANCH  12  15
ATOM     15  C   TRP A   1      56.259 -44.354   1.872  0.00  0.00    +0.224 C 
ATOM     16  O   TRP A   1      55.788 -43.386   1.268  0.00  0.00    -0.287 OA
ENDBRANCH  12  15
ENDBRANCH  11  12
ENDBRANCH   1  11
TORSDOF 4
REMARK  Name = ../refined-set-2016/3ppm/3ppm_pocket.pdb
REMARK  234 active torsions:
REMARK  status: ('A' for Active; 'I' for Inactive)
REMARK    1  A    between atoms: _1  and  _3
REMARK    2  A    between atoms: _3  and  _4
REMARK    3  A    between atoms: _3  and  _6
REMARK    4  A    between atoms: _6  and  _7
REMARK    5  A    between atoms: _7  and  _8
REMARK    6  A    between atoms: _8  and  _9
REMARK    7  A    between atoms: _9  and  _10
REMARK    8  A    between atoms: _14  and  _16
REMARK    9  A    between atoms: _16  and  _17
REMARK   10  A    between atoms: _16  and  _19
REMARK   11  A    between atoms: _19  and  _20
REMARK   12  A    between atoms: _20  and  _21
REMARK   13  A    between atoms: _24  and  _26
REMARK   14  A    between atoms: _26  and  _27
REMARK   15  A    between atoms: _26  and  _29
REMARK   16  A    between atoms: _31  and  _33
REMARK   17  A    between atoms: _33  and  _34
REMARK   18  A    between atoms: _33  and  _36
REMARK   19  A    between atoms: _36  and  _37
REMARK   20  A    between atoms: _43  and  _45
REMARK   21  A    between atoms: _45  and  _46
REMARK   22  A    between atoms: _45  and  _48
REMARK   23  A    between atoms: _48  and  _49
REMARK   24  A    between atoms: _52  and  _54
REMARK   25  A    between atoms: _54  and  _55
REMARK   26  A    between atoms: _54  and  _57
REMARK   27  A    between atoms: _61  and  _62
REMARK   28  A    between atoms: _67  and  _69
REMARK   29  A    between atoms: _69  and  _70
REMARK   30  A    between atoms: _69  and  _72
REMARK   31  A    between atoms: _72  and  _73
REMARK   32  A    between atoms: _75  and  _77
REMARK   33  A    between atoms: _77  and  _78
REMARK   34  A    between atoms: _77  and  _80
REMARK   35  A    between atoms: _80  and  _81
REMARK   36  A    between atoms: _81  and  _82
REMARK   37  A    between atoms: _84  and  _86
REMARK   38  A    between atoms: _86  and  _87
REMARK   39  A    between atoms: _86  and  _89
REMARK   40  A    between atoms: _89  and  _90
REMARK   41  A    between atoms: _96  and  _98
REMARK   42  A    between atoms: _98  and  _99
REMARK   43  A    between atoms: _98  and  _101
REMARK   44  A    between atoms: _101  and  _102
REMARK   45  A    between atoms: _104  and  _106
REMARK   46  A    between atoms: _106  and  _107
REMARK   47  A    between atoms: _106  and  _109
REMARK   48  A    between atoms: _109  and  _110
REMARK   49  A    between atoms: _115  and  _116
REMARK   50  A    between atoms: _118  and  _120
REMARK   51  A    between atoms: _120  and  _121
REMARK   52  A    between atoms: _120  and  _123
REMARK   53  A    between atoms: _123  and  _124
REMARK   54  A    between atoms: _127  and  _129
REMARK   55  A    between atoms: _129  and  _130
REMARK   56  A    between atoms: _132  and  _134
REMARK   57  A    between atoms: _134  and  _135
REMARK   58  A    between atoms: _134  and  _137
REMARK   59  A    between atoms: _137  and  _138
REMARK   60  A    between atoms: _140  and  _142
REMARK   61  A    between atoms: _142  and  _143
REMARK   62  A    between atoms: _142  and  _145
REMARK   63  A    between atoms: _145  and  _146
REMARK   64  A    between atoms: _148  and  _150
REMARK   65  A    between atoms: _150  and  _151
REMARK   66  A    between atoms: _153  and  _155
REMARK   67  A    between atoms: _155  and  _156
REMARK   68  A    between atoms: _155  and  _158
REMARK   69  A    between atoms: _158  and  _159
REMARK   70  A    between atoms: _162  and  _164
REMARK   71  A    between atoms: _164  and  _165
REMARK   72  A    between atoms: _164  and  _167
REMARK   73  A    between atoms: _167  and  _168
REMARK   74  A    between atoms: _171  and  _173
REMARK   75  A    between atoms: _173  and  _174
REMARK   76  A    between atoms: _173  and  _176
REMARK   77  A    between atoms: _176  and  _177
REMARK   78  A    between atoms: _180  and  _182
REMARK   79  A    between atoms: _182  and  _183
REMARK   80  A    between atoms: _185  and  _187
REMARK   81  A    between atoms: _187  and  _188
REMARK   82  A    between atoms: _190  and  _192
REMARK   83  A    between atoms: _192  and  _193
REMARK   84  A    between atoms: _192  and  _195
REMARK   85  A    between atoms: _195  and  _196
REMARK   86  A    between atoms: _198  and  _200
REMARK   87  A    between atoms: _200  and  _201
REMARK   88  A    between atoms: _200  and  _203
REMARK   89  A    between atoms: _203  and  _204
REMARK   90  A    between atoms: _207  and  _209
REMARK   91  A    between atoms: _209  and  _210
REMARK   92  A    between atoms: _209  and  _212
REMARK   93  A    between atoms: _212  and  _213
REMARK   94  A    between atoms: _213  and  _214
REMARK   95  A    between atoms: _214  and  _215
REMARK   96  A    between atoms: _224  and  _226
REMARK   97  A    between atoms: _226  and  _227
REMARK   98  A    between atoms: _226  and  _229
REMARK   99  A    between atoms: _229  and  _230
REMARK  100  A    between atoms: _236  and  _238
REMARK  101  A    between atoms: _238  and  _239
REMARK  102  A    between atoms: _238  and  _241
REMARK  103  A    between atoms: _241  and  _242
REMARK  104  A    between atoms: _242  and  _243
REMARK  105  A    between atoms: _243  and  _244
REMARK  106  A    between atoms: _244  and  _245
REMARK  107  A    between atoms: _249  and  _251
REMARK  108  A    between atoms: _251  and  _252
REMARK  109  A    between atoms: _254  and  _256
REMARK  110  A    between atoms: _256  and  _257
REMARK  111  A    between atoms: _256  and  _259
REMARK  112  A    between atoms: _259  and  _260
REMARK  113  A    between atoms: _263  and  _265
REMARK  114  A    between atoms: _265  and  _266
REMARK  115  A    between atoms: _265  and  _268
REMARK  116  A    between atoms: _268  and  _269
REMARK  117  A    between atoms: _269  and  _270
REMARK  118  A    between atoms: _270  and  _271
REMARK  119  A    between atoms: _271  and  _272
REMARK  120  A    between atoms: _276  and  _278
REMARK  121  A    between atoms: _278  and  _279
REMARK  122  A    between atoms: _281  and  _283
REMARK  123  A    between atoms: _283  and  _284
REMARK  124  A    between atoms: _283  and  _286
REMARK  125  A    between atoms: _288  and  _290
REMARK  126  A    between atoms: _290  and  _291
REMARK  127  A    between atoms: _290  and  _293
REMARK  128  A    between atoms: _296  and  _298
REMARK  129  A    between atoms: _298  and  _299
REMARK  130  A    between atoms: _298  and  _301
REMARK  131  A    between atoms: _301  and  _302
REMARK  132  A    between atoms: _307  and  _308
REMARK  133  A    between atoms: _310  and  _312
REMARK  134  A    between atoms: _312  and  _313
REMARK  135  A    between atoms: _312  and  _315
REMARK  136  A    between atoms: _315  and  _316
REMARK  137  A    between atoms: _316  and  _317
REMARK  138  A    between atoms: _322  and  _324
REMARK  139  A    between atoms: _324  and  _325
REMARK  140  A    between atoms: _324  and  _327
REMARK  141  A    between atoms: _327  and  _328
REMARK  142  A    between atoms: _331  and  _333
REMARK  143  A    between atoms: _333  and  _334
REMARK  144  A    between atoms: _333  and  _336
REMARK  145  A    between atoms: _336  and  _337
REMARK  146  A    between atoms: _339  and  _341
REMARK  147  A    between atoms: _341  and  _342
REMARK  148  A    between atoms: _341  and  _344
REMARK  149  A    between atoms: _344  and  _345
REMARK  150  A    between atoms: _348  and  _350
REMARK  151  A    between atoms: _350  and  _351
REMARK  152  A    between atoms: _350  and  _353
REMARK  153  A    between atoms: _353  and  _354
REMARK  154  A    between atoms: _357  and  _359
REMARK  155  A    between atoms: _359  and  _360
REMARK  156  A    between atoms: _359  and  _362
REMARK  157  A    between atoms: _362  and  _363
REMARK  158  A    between atoms: _363  and  _364
REMARK  159  A    between atoms: _367  and  _369
REMARK  160  A    between atoms: _369  and  _370
REMARK  161  A    between atoms: _369  and  _372
REMARK  162  A    between atoms: _372  and  _373
REMARK  163  A    between atoms: _375  and  _377
REMARK  164  A    between atoms: _377  and  _378
REMARK  165  A    between atoms: _377  and  _380
REMARK  166  A    between atoms: _380  and  _381
REMARK  167  A    between atoms: _384  and  _386
REMARK  168  A    between atoms: _386  and  _387
REMARK  169  A    between atoms: _389  and  _391
REMARK  170  A    between atoms: _391  and  _392
REMARK  171  A    between atoms: _391  and  _394
REMARK  172  A    between atoms: _394  and  _395
REMARK  173  A    between atoms: _398  and  _400
REMARK  174  A    between atoms: _400  and  _401
REMARK  175  A    between atoms: _400  and  _403
REMARK  176  A    between atoms: _403  and  _404
REMARK  177  A    between atoms: _410  and  _412
REMARK  178  A    between atoms: _412  and  _413
REMARK  179  A    between atoms: _412  and  _415
REMARK  180  A    between atoms: _415  and  _416
REMARK  181  A    between atoms: _422  and  _424
REMARK  182  A    between atoms: _424  and  _425
REMARK  183  A    between atoms: _424  and  _427
REMARK  184  A    between atoms: _427  and  _428
REMARK  185  A    between atoms: _431  and  _433
REMARK  186  A    between atoms: _433  and  _434
REMARK  187  A    between atoms: _433  and  _436
REMARK  188  A    between atoms: _436  and  _437
REMARK  189  A    between atoms: _440  and  _442
REMARK  190  A    between atoms: _442  and  _443
REMARK  191  A    between atoms: _442  and  _445
REMARK  192  A    between atoms: _445  and  _446
REMARK  193  A    between atoms: _452  and  _454
REMARK  194  A    between atoms: _454  and  _455
REMARK  195  A    between atoms: _454  and  _457
REMARK  196  A    between atoms: _457  and  _458
REMARK  197  A    between atoms: _463  and  _465
REMARK  198  A    between atoms: _465  and  _466
REMARK  199  A    between atoms: _465  and  _468
REMARK  200  A    between atoms: _468  and  _469
REMARK  201  A    between atoms: _469  and  _470
REMARK  202  A    between atoms: _473  and  _474
REMARK  203  A    between atoms: _479  and  _481
REMARK  204  A    between atoms: _481  and  _482
REMARK  205  A    between atoms: _484  and  _486
REMARK  206  A    between atoms: _486  and  _487
REMARK  207  A    between atoms: _490  and  _492
REMARK  208  A    between atoms: _492  and  _493
REMARK  209  A    between atoms: _492  and  _495
REMARK  210  A    between atoms: _495  and  _496
REMARK  211  A    between atoms: _499  and  _501
REMARK  212  A    between atoms: _501  and  _502
REMARK  213  A    between atoms: _504  and  _506
REMARK  214  A    between atoms: _506  and  _507
REMARK  215  A    between atoms: _510  and  _512
REMARK  216  A    between atoms: _512  and  _513
REMARK  217  A    between atoms: _512  and  _515
REMARK  218  A    between atoms: _518  and  _520
REMARK  219  A    between atoms: _520  and  _521
REMARK  220  A    between atoms: _520  and  _523
REMARK  221  A    between atoms: _523  and  _524
REMARK  222  A    between atoms: _527  and  _529
REMARK  223  A    between atoms: _529  and  _530
REMARK  224  A    between atoms: _529  and  _532
REMARK  225  A    between atoms: _532  and  _533
REMARK  226  A    between atoms: _533  and  _534
REMARK  227  A    between atoms: _536  and  _538
REMARK  228  A    between atoms: _538  and  _539
REMARK  229  A    between atoms: _538  and  _541
REMARK  230  A    between atoms: _541  and  _542
REMARK  231  A    between atoms: _547  and  _549
REMARK  232  A    between atoms: _549  and  _550
REMARK  233  A    between atoms: _549  and  _552
REMARK  234  A    between atoms: _552  and  _553
REMARK                            x       y       z     vdW  Elec       q    Type
REMARK                         _______ _______ _______ _____ _____    ______ ____
ROOT
ATOM      1  O   HOH     1      28.627 -43.717  15.642  0.00  0.00    +0.000 OA
ENDROOT
TORSDOF 0
REMARK  Name = ../refined-set-2016/3ppm/3ppm_pocket.pdb
REMARK  234 active torsions:
REMARK  status: ('A' for Active; 'I' for Inactive)
REMARK    1  A    between atoms: _1  and  _3
REMARK    2  A    between atoms: _3  and  _4
REMARK    3  A    between atoms: _3  and  _6
REMARK    4  A    between atoms: _6  and  _7
REMARK    5  A    between atoms: _7  and  _8
REMARK    6  A    between atoms: _8  and  _9
REMARK    7  A    between atoms: _9  and  _10
REMARK    8  A    between atoms: _14  and  _16
REMARK    9  A    between atoms: _16  and  _17
REMARK   10  A    between atoms: _16  and  _19
REMARK   11  A    between atoms: _19  and  _20
REMARK   12  A    between atoms: _20  and  _21
REMARK   13  A    between atoms: _24  and  _26
REMARK   14  A    between atoms: _26  and  _27
REMARK   15  A    between atoms: _26  and  _29
REMARK   16  A    between atoms: _31  and  _33
REMARK   17  A    between atoms: _33  and  _34
REMARK   18  A    between atoms: _33  and  _36
REMARK   19  A    between atoms: _36  and  _37
REMARK   20  A    between atoms: _43  and  _45
REMARK   21  A    between atoms: _45  and  _46
REMARK   22  A    between atoms: _45  and  _48
REMARK   23  A    between atoms: _48  and  _49
REMARK   24  A    between atoms: _52  and  _54
REMARK   25  A    between atoms: _54  and  _55
REMARK   26  A    between atoms: _54  and  _57
REMARK   27  A    between atoms: _61  and  _62
REMARK   28  A    between atoms: _67  and  _69
REMARK   29  A    between atoms: _69  and  _70
REMARK   30  A    between atoms: _69  and  _72
REMARK   31  A    between atoms: _72  and  _73
REMARK   32  A    between atoms: _75  and  _77
REMARK   33  A    between atoms: _77  and  _78
REMARK   34  A    between atoms: _77  and  _80
REMARK   35  A    between atoms: _80  and  _81
REMARK   36  A    between atoms: _81  and  _82
REMARK   37  A    between atoms: _84  and  _86
REMARK   38  A    between atoms: _86  and  _87
REMARK   39  A    between atoms: _86  and  _89
REMARK   40  A    between atoms: _89  and  _90
REMARK   41  A    between atoms: _96  and  _98
REMARK   42  A    between atoms: _98  and  _99
REMARK   43  A    between atoms: _98  and  _101
REMARK   44  A    between atoms: _101  and  _102
REMARK   45  A    between atoms: _104  and  _106
REMARK   46  A    between atoms: _106  and  _107
REMARK   47  A    between atoms: _106  and  _109
REMARK   48  A    between atoms: _109  and  _110
REMARK   49  A    between atoms: _115  and  _116
REMARK   50  A    between atoms: _118  and  _120
REMARK   51  A    between atoms: _120  and  _121
REMARK   52  A    between atoms: _120  and  _123
REMARK   53  A    between atoms: _123  and  _124
REMARK   54  A    between atoms: _127  and  _129
REMARK   55  A    between atoms: _129  and  _130
REMARK   56  A    between atoms: _132  and  _134
REMARK   57  A    between atoms: _134  and  _135
REMARK   58  A    between atoms: _134  and  _137
REMARK   59  A    between atoms: _137  and  _138
REMARK   60  A    between atoms: _140  and  _142
REMARK   61  A    between atoms: _142  and  _143
REMARK   62  A    between atoms: _142  and  _145
REMARK   63  A    between atoms: _145  and  _146
REMARK   64  A    between atoms: _148  and  _150
REMARK   65  A    between atoms: _150  and  _151
REMARK   66  A    between atoms: _153  and  _155
REMARK   67  A    between atoms: _155  and  _156
REMARK   68  A    between atoms: _155  and  _158
REMARK   69  A    between atoms: _158  and  _159
REMARK   70  A    between atoms: _162  and  _164
REMARK   71  A    between atoms: _164  and  _165
REMARK   72  A    between atoms: _164  and  _167
REMARK   73  A    between atoms: _167  and  _168
REMARK   74  A    between atoms: _171  and  _173
REMARK   75  A    between atoms: _173  and  _174
REMARK   76  A    between atoms: _173  and  _176
REMARK   77  A    between atoms: _176  and  _177
REMARK   78  A    between atoms: _180  and  _182
REMARK   79  A    between atoms: _182  and  _183
REMARK   80  A    between atoms: _185  and  _187
REMARK   81  A    between atoms: _187  and  _188
REMARK   82  A    between atoms: _190  and  _192
REMARK   83  A    between atoms: _192  and  _193
REMARK   84  A    between atoms: _192  and  _195
REMARK   85  A    between atoms: _195  and  _196
REMARK   86  A    between atoms: _198  and  _200
REMARK   87  A    between atoms: _200  and  _201
REMARK   88  A    between atoms: _200  and  _203
REMARK   89  A    between atoms: _203  and  _204
REMARK   90  A    between atoms: _207  and  _209
REMARK   91  A    between atoms: _209  and  _210
REMARK   92  A    between atoms: _209  and  _212
REMARK   93  A    between atoms: _212  and  _213
REMARK   94  A    between atoms: _213  and  _214
REMARK   95  A    between atoms: _214  and  _215
REMARK   96  A    between atoms: _224  and  _226
REMARK   97  A    between atoms: _226  and  _227
REMARK   98  A    between atoms: _226  and  _229
REMARK   99  A    between atoms: _229  and  _230
REMARK  100  A    between atoms: _236  and  _238
REMARK  101  A    between atoms: _238  and  _239
REMARK  102  A    between atoms: _238  and  _241
REMARK  103  A    between atoms: _241  and  _242
REMARK  104  A    between atoms: _242  and  _243
REMARK  105  A    between atoms: _243  and  _244
REMARK  106  A    between atoms: _244  and  _245
REMARK  107  A    between atoms: _249  and  _251
REMARK  108  A    between atoms: _251  and  _252
REMARK  109  A    between atoms: _254  and  _256
REMARK  110  A    between atoms: _256  and  _257
REMARK  111  A    between atoms: _256  and  _259
REMARK  112  A    between atoms: _259  and  _260
REMARK  113  A    between atoms: _263  and  _265
REMARK  114  A    between atoms: _265  and  _266
REMARK  115  A    between atoms: _265  and  _268
REMARK  116  A    between atoms: _268  and  _269
REMARK  117  A    between atoms: _269  and  _270
REMARK  118  A    between atoms: _270  and  _271
REMARK  119  A    between atoms: _271  and  _272
REMARK  120  A    between atoms: _276  and  _278
REMARK  121  A    between atoms: _278  and  _279
REMARK  122  A    between atoms: _281  and  _283
REMARK  123  A    between atoms: _283  and  _284
REMARK  124  A    between atoms: _283  and  _286
REMARK  125  A    between atoms: _288  and  _290
REMARK  126  A    between atoms: _290  and  _291
REMARK  127  A    between atoms: _290  and  _293
REMARK  128  A    between atoms: _296  and  _298
REMARK  129  A    between atoms: _298  and  _299
REMARK  130  A    between atoms: _298  and  _301
REMARK  131  A    between atoms: _301  and  _302
REMARK  132  A    between atoms: _307  and  _308
REMARK  133  A    between atoms: _310  and  _312
REMARK  134  A    between atoms: _312  and  _313
REMARK  135  A    between atoms: _312  and  _315
REMARK  136  A    between atoms: _315  and  _316
REMARK  137  A    between atoms: _316  and  _317
REMARK  138  A    between atoms: _322  and  _324
REMARK  139  A    between atoms: _324  and  _325
REMARK  140  A    between atoms: _324  and  _327
REMARK  141  A    between atoms: _327  and  _328
REMARK  142  A    between atoms: _331  and  _333
REMARK  143  A    between atoms: _333  and  _334
REMARK  144  A    between atoms: _333  and  _336
REMARK  145  A    between atoms: _336  and  _337
REMARK  146  A    between atoms: _339  and  _341
REMARK  147  A    between atoms: _341  and  _342
REMARK  148  A    between atoms: _341  and  _344
REMARK  149  A    between atoms: _344  and  _345
REMARK  150  A    between atoms: _348  and  _350
REMARK  151  A    between atoms: _350  and  _351
REMARK  152  A    between atoms: _350  and  _353
REMARK  153  A    between atoms: _353  and  _354
REMARK  154  A    between atoms: _357  and  _359
REMARK  155  A    between atoms: _359  and  _360
REMARK  156  A    between atoms: _359  and  _362
REMARK  157  A    between atoms: _362  and  _363
REMARK  158  A    between atoms: _363  and  _364
REMARK  159  A    between atoms: _367  and  _369
REMARK  160  A    between atoms: _369  and  _370
REMARK  161  A    between atoms: _369  and  _372
REMARK  162  A    between atoms: _372  and  _373
REMARK  163  A    between atoms: _375  and  _377
REMARK  164  A    between atoms: _377  and  _378
REMARK  165  A    between atoms: _377  and  _380
REMARK  166  A    between atoms: _380  and  _381
REMARK  167  A    between atoms: _384  and  _386
REMARK  168  A    between atoms: _386  and  _387
REMARK  169  A    between atoms: _389  and  _391
REMARK  170  A    between atoms: _391  and  _392
REMARK  171  A    between atoms: _391  and  _394
REMARK  172  A    between atoms: _394  and  _395
REMARK  173  A    between atoms: _398  and  _400
REMARK  174  A    between atoms: _400  and  _401
REMARK  175  A    between atoms: _400  and  _403
REMARK  176  A    between atoms: _403  and  _404
REMARK  177  A    between atoms: _410  and  _412
REMARK  178  A    between atoms: _412  and  _413
REMARK  179  A    between atoms: _412  and  _415
REMARK  180  A    between atoms: _415  and  _416
REMARK  181  A    between atoms: _422  and  _424
REMARK  182  A    between atoms: _424  and  _425
REMARK  183  A    between atoms: _424  and  _427
REMARK  184  A    between atoms: _427  and  _428
REMARK  185  A    between atoms: _431  and  _433
REMARK  186  A    between atoms: _433  and  _434
REMARK  187  A    between atoms: _433  and  _436
REMARK  188  A    between atoms: _436  and  _437
REMARK  189  A    between atoms: _440  and  _442
REMARK  190  A    between atoms: _442  and  _443
REMARK  191  A    between atoms: _442  and  _445
REMARK  192  A    between atoms: _445  and  _446
REMARK  193  A    between atoms: _452  and  _454
REMARK  194  A    between atoms: _454  and  _455
REMARK  195  A    between atoms: _454  and  _457
REMARK  196  A    between atoms: _457  and  _458
REMARK  197  A    between atoms: _463  and  _465
REMARK  198  A    between atoms: _465  and  _466
REMARK  199  A    between atoms: _465  and  _468
REMARK  200  A    between atoms: _468  and  _469
REMARK  201  A    between atoms: _469  and  _470
REMARK  202  A    between atoms: _473  and  _474
REMARK  203  A    between atoms: _479  and  _481
REMARK  204  A    between atoms: _481  and  _482
REMARK  205  A    between atoms: _484  and  _486
REMARK  206  A    between atoms: _486  and  _487
REMARK  207  A    between atoms: _490  and  _492
REMARK  208  A    between atoms: _492  and  _493
REMARK  209  A    between atoms: _492  and  _495
REMARK  210  A    between atoms: _495  and  _496
REMARK  211  A    between atoms: _499  and  _501
REMARK  212  A    between atoms: _501  and  _502
REMARK  213  A    between atoms: _504  and  _506
REMARK  214  A    between atoms: _506  and  _507
REMARK  215  A    between atoms: _510  and  _512
REMARK  216  A    between atoms: _512  and  _513
REMARK  217  A    between atoms: _512  and  _515
REMARK  218  A    between atoms: _518  and  _520
REMARK  219  A    between atoms: _520  and  _521
REMARK  220  A    between atoms: _520  and  _523
REMARK  221  A    between atoms: _523  and  _524
REMARK  222  A    between atoms: _527  and  _529
REMARK  223  A    between atoms: _529  and  _530
REMARK  224  A    between atoms: _529  and  _532
REMARK  225  A    between atoms: _532  and  _533
REMARK  226  A    between atoms: _533  and  _534
REMARK  227  A    between atoms: _536  and  _538
REMARK  228  A    between atoms: _538  and  _539
REMARK  229  A    between atoms: _538  and  _541
REMARK  230  A    between atoms: _541  and  _542
REMARK  231  A    between atoms: _547  and  _549
REMARK  232  A    between atoms: _549  and  _550
REMARK  233  A    between atoms: _549  and  _552
REMARK  234  A    between atoms: _552  and  _553
REMARK                            x       y       z     vdW  Elec       q    Type
REMARK                         _______ _______ _______ _____ _____    ______ ____
ROOT
ATOM      1  O   HOH     1      28.523 -41.084  10.810  0.00  0.00    +0.000 OA
ENDROOT
TORSDOF 0
REMARK  Name = ../refined-set-2016/3ppm/3ppm_pocket.pdb
REMARK  234 active torsions:
REMARK  status: ('A' for Active; 'I' for Inactive)
REMARK    1  A    between atoms: _1  and  _3
REMARK    2  A    between atoms: _3  and  _4
REMARK    3  A    between atoms: _3  and  _6
REMARK    4  A    between atoms: _6  and  _7
REMARK    5  A    between atoms: _7  and  _8
REMARK    6  A    between atoms: _8  and  _9
REMARK    7  A    between atoms: _9  and  _10
REMARK    8  A    between atoms: _14  and  _16
REMARK    9  A    between atoms: _16  and  _17
REMARK   10  A    between atoms: _16  and  _19
REMARK   11  A    between atoms: _19  and  _20
REMARK   12  A    between atoms: _20  and  _21
REMARK   13  A    between atoms: _24  and  _26
REMARK   14  A    between atoms: _26  and  _27
REMARK   15  A    between atoms: _26  and  _29
REMARK   16  A    between atoms: _31  and  _33
REMARK   17  A    between atoms: _33  and  _34
REMARK   18  A    between atoms: _33  and  _36
REMARK   19  A    between atoms: _36  and  _37
REMARK   20  A    between atoms: _43  and  _45
REMARK   21  A    between atoms: _45  and  _46
REMARK   22  A    between atoms: _45  and  _48
REMARK   23  A    between atoms: _48  and  _49
REMARK   24  A    between atoms: _52  and  _54
REMARK   25  A    between atoms: _54  and  _55
REMARK   26  A    between atoms: _54  and  _57
REMARK   27  A    between atoms: _61  and  _62
REMARK   28  A    between atoms: _67  and  _69
REMARK   29  A    between atoms: _69  and  _70
REMARK   30  A    between atoms: _69  and  _72
REMARK   31  A    between atoms: _72  and  _73
REMARK   32  A    between atoms: _75  and  _77
REMARK   33  A    between atoms: _77  and  _78
REMARK   34  A    between atoms: _77  and  _80
REMARK   35  A    between atoms: _80  and  _81
REMARK   36  A    between atoms: _81  and  _82
REMARK   37  A    between atoms: _84  and  _86
REMARK   38  A    between atoms: _86  and  _87
REMARK   39  A    between atoms: _86  and  _89
REMARK   40  A    between atoms: _89  and  _90
REMARK   41  A    between atoms: _96  and  _98
REMARK   42  A    between atoms: _98  and  _99
REMARK   43  A    between atoms: _98  and  _101
REMARK   44  A    between atoms: _101  and  _102
REMARK   45  A    between atoms: _104  and  _106
REMARK   46  A    between atoms: _106  and  _107
REMARK   47  A    between atoms: _106  and  _109
REMARK   48  A    between atoms: _109  and  _110
REMARK   49  A    between atoms: _115  and  _116
REMARK   50  A    between atoms: _118  and  _120
REMARK   51  A    between atoms: _120  and  _121
REMARK   52  A    between atoms: _120  and  _123
REMARK   53  A    between atoms: _123  and  _124
REMARK   54  A    between atoms: _127  and  _129
REMARK   55  A    between atoms: _129  and  _130
REMARK   56  A    between atoms: _132  and  _134
REMARK   57  A    between atoms: _134  and  _135
REMARK   58  A    between atoms: _134  and  _137
REMARK   59  A    between atoms: _137  and  _138
REMARK   60  A    between atoms: _140  and  _142
REMARK   61  A    between atoms: _142  and  _143
REMARK   62  A    between atoms: _142  and  _145
REMARK   63  A    between atoms: _145  and  _146
REMARK   64  A    between atoms: _148  and  _150
REMARK   65  A    between atoms: _150  and  _151
REMARK   66  A    between atoms: _153  and  _155
REMARK   67  A    between atoms: _155  and  _156
REMARK   68  A    between atoms: _155  and  _158
REMARK   69  A    between atoms: _158  and  _159
REMARK   70  A    between atoms: _162  and  _164
REMARK   71  A    between atoms: _164  and  _165
REMARK   72  A    between atoms: _164  and  _167
REMARK   73  A    between atoms: _167  and  _168
REMARK   74  A    between atoms: _171  and  _173
REMARK   75  A    between atoms: _173  and  _174
REMARK   76  A    between atoms: _173  and  _176
REMARK   77  A    between atoms: _176  and  _177
REMARK   78  A    between atoms: _180  and  _182
REMARK   79  A    between atoms: _182  and  _183
REMARK   80  A    between atoms: _185  and  _187
REMARK   81  A    between atoms: _187  and  _188
REMARK   82  A    between atoms: _190  and  _192
REMARK   83  A    between atoms: _192  and  _193
REMARK   84  A    between atoms: _192  and  _195
REMARK   85  A    between atoms: _195  and  _196
REMARK   86  A    between atoms: _198  and  _200
REMARK   87  A    between atoms: _200  and  _201
REMARK   88  A    between atoms: _200  and  _203
REMARK   89  A    between atoms: _203  and  _204
REMARK   90  A    between atoms: _207  and  _209
REMARK   91  A    between atoms: _209  and  _210
REMARK   92  A    between atoms: _209  and  _212
REMARK   93  A    between atoms: _212  and  _213
REMARK   94  A    between atoms: _213  and  _214
REMARK   95  A    between atoms: _214  and  _215
REMARK   96  A    between atoms: _224  and  _226
REMARK   97  A    between atoms: _226  and  _227
REMARK   98  A    between atoms: _226  and  _229
REMARK   99  A    between atoms: _229  and  _230
REMARK  100  A    between atoms: _236  and  _238
REMARK  101  A    between atoms: _238  and  _239
REMARK  102  A    between atoms: _238  and  _241
REMARK  103  A    between atoms: _241  and  _242
REMARK  104  A    between atoms: _242  and  _243
REMARK  105  A    between atoms: _243  and  _244
REMARK  106  A    between atoms: _244  and  _245
REMARK  107  A    between atoms: _249  and  _251
REMARK  108  A    between atoms: _251  and  _252
REMARK  109  A    between atoms: _254  and  _256
REMARK  110  A    between atoms: _256  and  _257
REMARK  111  A    between atoms: _256  and  _259
REMARK  112  A    between atoms: _259  and  _260
REMARK  113  A    between atoms: _263  and  _265
REMARK  114  A    between atoms: _265  and  _266
REMARK  115  A    between atoms: _265  and  _268
REMARK  116  A    between atoms: _268  and  _269
REMARK  117  A    between atoms: _269  and  _270
REMARK  118  A    between atoms: _270  and  _271
REMARK  119  A    between atoms: _271  and  _272
REMARK  120  A    between atoms: _276  and  _278
REMARK  121  A    between atoms: _278  and  _279
REMARK  122  A    between atoms: _281  and  _283
REMARK  123  A    between atoms: _283  and  _284
REMARK  124  A    between atoms: _283  and  _286
REMARK  125  A    between atoms: _288  and  _290
REMARK  126  A    between atoms: _290  and  _291
REMARK  127  A    between atoms: _290  and  _293
REMARK  128  A    between atoms: _296  and  _298
REMARK  129  A    between atoms: _298  and  _299
REMARK  130  A    between atoms: _298  and  _301
REMARK  131  A    between atoms: _301  and  _302
REMARK  132  A    between atoms: _307  and  _308
REMARK  133  A    between atoms: _310  and  _312
REMARK  134  A    between atoms: _312  and  _313
REMARK  135  A    between atoms: _312  and  _315
REMARK  136  A    between atoms: _315  and  _316
REMARK  137  A    between atoms: _316  and  _317
REMARK  138  A    between atoms: _322  and  _324
REMARK  139  A    between atoms: _324  and  _325
REMARK  140  A    between atoms: _324  and  _327
REMARK  141  A    between atoms: _327  and  _328
REMARK  142  A    between atoms: _331  and  _333
REMARK  143  A    between atoms: _333  and  _334
REMARK  144  A    between atoms: _333  and  _336
REMARK  145  A    between atoms: _336  and  _337
REMARK  146  A    between atoms: _339  and  _341
REMARK  147  A    between atoms: _341  and  _342
REMARK  148  A    between atoms: _341  and  _344
REMARK  149  A    between atoms: _344  and  _345
REMARK  150  A    between atoms: _348  and  _350
REMARK  151  A    between atoms: _350  and  _351
REMARK  152  A    between atoms: _350  and  _353
REMARK  153  A    between atoms: _353  and  _354
REMARK  154  A    between atoms: _357  and  _359
REMARK  155  A    between atoms: _359  and  _360
REMARK  156  A    between atoms: _359  and  _362
REMARK  157  A    between atoms: _362  and  _363
REMARK  158  A    between atoms: _363  and  _364
REMARK  159  A    between atoms: _367  and  _369
REMARK  160  A    between atoms: _369  and  _370
REMARK  161  A    between atoms: _369  and  _372
REMARK  162  A    between atoms: _372  and  _373
REMARK  163  A    between atoms: _375  and  _377
REMARK  164  A    between atoms: _377  and  _378
REMARK  165  A    between atoms: _377  and  _380
REMARK  166  A    between atoms: _380  and  _381
REMARK  167  A    between atoms: _384  and  _386
REMARK  168  A    between atoms: _386  and  _387
REMARK  169  A    between atoms: _389  and  _391
REMARK  170  A    between atoms: _391  and  _392
REMARK  171  A    between atoms: _391  and  _394
REMARK  172  A    between atoms: _394  and  _395
REMARK  173  A    between atoms: _398  and  _400
REMARK  174  A    between atoms: _400  and  _401
REMARK  175  A    between atoms: _400  and  _403
REMARK  176  A    between atoms: _403  and  _404
REMARK  177  A    between atoms: _410  and  _412
REMARK  178  A    between atoms: _412  and  _413
REMARK  179  A    between atoms: _412  and  _415
REMARK  180  A    between atoms: _415  and  _416
REMARK  181  A    between atoms: _422  and  _424
REMARK  182  A    between atoms: _424  and  _425
REMARK  183  A    between atoms: _424  and  _427
REMARK  184  A    between atoms: _427  and  _428
REMARK  185  A    between atoms: _431  and  _433
REMARK  186  A    between atoms: _433  and  _434
REMARK  187  A    between atoms: _433  and  _436
REMARK  188  A    between atoms: _436  and  _437
REMARK  189  A    between atoms: _440  and  _442
REMARK  190  A    between atoms: _442  and  _443
REMARK  191  A    between atoms: _442  and  _445
REMARK  192  A    between atoms: _445  and  _446
REMARK  193  A    between atoms: _452  and  _454
REMARK  194  A    between atoms: _454  and  _455
REMARK  195  A    between atoms: _454  and  _457
REMARK  196  A    between atoms: _457  and  _458
REMARK  197  A    between atoms: _463  and  _465
REMARK  198  A    between atoms: _465  and  _466
REMARK  199  A    between atoms: _465  and  _468
REMARK  200  A    between atoms: _468  and  _469
REMARK  201  A    between atoms: _469  and  _470
REMARK  202  A    between atoms: _473  and  _474
REMARK  203  A    between atoms: _479  and  _481
REMARK  204  A    between atoms: _481  and  _482
REMARK  205  A    between atoms: _484  and  _486
REMARK  206  A    between atoms: _486  and  _487
REMARK  207  A    between atoms: _490  and  _492
REMARK  208  A    between atoms: _492  and  _493
REMARK  209  A    between atoms: _492  and  _495
REMARK  210  A    between atoms: _495  and  _496
REMARK  211  A    between atoms: _499  and  _501
REMARK  212  A    between atoms: _501  and  _502
REMARK  213  A    between atoms: _504  and  _506
REMARK  214  A    between atoms: _506  and  _507
REMARK  215  A    between atoms: _510  and  _512
REMARK  216  A    between atoms: _512  and  _513
REMARK  217  A    between atoms: _512  and  _515
REMARK  218  A    between atoms: _518  and  _520
REMARK  219  A    between atoms: _520  and  _521
REMARK  220  A    between atoms: _520  and  _523
REMARK  221  A    between atoms: _523  and  _524
REMARK  222  A    between atoms: _527  and  _529
REMARK  223  A    between atoms: _529  and  _530
REMARK  224  A    between atoms: _529  and  _532
REMARK  225  A    between atoms: _532  and  _533
REMARK  226  A    between atoms: _533  and  _534
REMARK  227  A    between atoms: _536  and  _538
REMARK  228  A    between atoms: _538  and  _539
REMARK  229  A    between atoms: _538  and  _541
REMARK  230  A    between atoms: _541  and  _542
REMARK  231  A    between atoms: _547  and  _549
REMARK  232  A    between atoms: _549  and  _550
REMARK  233  A    between atoms: _549  and  _552
REMARK  234  A    between atoms: _552  and  _553
REMARK                            x       y       z     vdW  Elec       q    Type
REMARK                         _______ _______ _______ _____ _____    ______ ____
ROOT
ATOM      1  O   HOH     1      29.909 -43.235  11.393  0.00  0.00    +0.000 OA
ENDROOT
TORSDOF 0
REMARK  Name = ../refined-set-2016/3ppm/3ppm_pocket.pdb
REMARK  234 active torsions:
REMARK  status: ('A' for Active; 'I' for Inactive)
REMARK    1  A    between atoms: _1  and  _3
REMARK    2  A    between atoms: _3  and  _4
REMARK    3  A    between atoms: _3  and  _6
REMARK    4  A    between atoms: _6  and  _7
REMARK    5  A    between atoms: _7  and  _8
REMARK    6  A    between atoms: _8  and  _9
REMARK    7  A    between atoms: _9  and  _10
REMARK    8  A    between atoms: _14  and  _16
REMARK    9  A    between atoms: _16  and  _17
REMARK   10  A    between atoms: _16  and  _19
REMARK   11  A    between atoms: _19  and  _20
REMARK   12  A    between atoms: _20  and  _21
REMARK   13  A    between atoms: _24  and  _26
REMARK   14  A    between atoms: _26  and  _27
REMARK   15  A    between atoms: _26  and  _29
REMARK   16  A    between atoms: _31  and  _33
REMARK   17  A    between atoms: _33  and  _34
REMARK   18  A    between atoms: _33  and  _36
REMARK   19  A    between atoms: _36  and  _37
REMARK   20  A    between atoms: _43  and  _45
REMARK   21  A    between atoms: _45  and  _46
REMARK   22  A    between atoms: _45  and  _48
REMARK   23  A    between atoms: _48  and  _49
REMARK   24  A    between atoms: _52  and  _54
REMARK   25  A    between atoms: _54  and  _55
REMARK   26  A    between atoms: _54  and  _57
REMARK   27  A    between atoms: _61  and  _62
REMARK   28  A    between atoms: _67  and  _69
REMARK   29  A    between atoms: _69  and  _70
REMARK   30  A    between atoms: _69  and  _72
REMARK   31  A    between atoms: _72  and  _73
REMARK   32  A    between atoms: _75  and  _77
REMARK   33  A    between atoms: _77  and  _78
REMARK   34  A    between atoms: _77  and  _80
REMARK   35  A    between atoms: _80  and  _81
REMARK   36  A    between atoms: _81  and  _82
REMARK   37  A    between atoms: _84  and  _86
REMARK   38  A    between atoms: _86  and  _87
REMARK   39  A    between atoms: _86  and  _89
REMARK   40  A    between atoms: _89  and  _90
REMARK   41  A    between atoms: _96  and  _98
REMARK   42  A    between atoms: _98  and  _99
REMARK   43  A    between atoms: _98  and  _101
REMARK   44  A    between atoms: _101  and  _102
REMARK   45  A    between atoms: _104  and  _106
REMARK   46  A    between atoms: _106  and  _107
REMARK   47  A    between atoms: _106  and  _109
REMARK   48  A    between atoms: _109  and  _110
REMARK   49  A    between atoms: _115  and  _116
REMARK   50  A    between atoms: _118  and  _120
REMARK   51  A    between atoms: _120  and  _121
REMARK   52  A    between atoms: _120  and  _123
REMARK   53  A    between atoms: _123  and  _124
REMARK   54  A    between atoms: _127  and  _129
REMARK   55  A    between atoms: _129  and  _130
REMARK   56  A    between atoms: _132  and  _134
REMARK   57  A    between atoms: _134  and  _135
REMARK   58  A    between atoms: _134  and  _137
REMARK   59  A    between atoms: _137  and  _138
REMARK   60  A    between atoms: _140  and  _142
REMARK   61  A    between atoms: _142  and  _143
REMARK   62  A    between atoms: _142  and  _145
REMARK   63  A    between atoms: _145  and  _146
REMARK   64  A    between atoms: _148  and  _150
REMARK   65  A    between atoms: _150  and  _151
REMARK   66  A    between atoms: _153  and  _155
REMARK   67  A    between atoms: _155  and  _156
REMARK   68  A    between atoms: _155  and  _158
REMARK   69  A    between atoms: _158  and  _159
REMARK   70  A    between atoms: _162  and  _164
REMARK   71  A    between atoms: _164  and  _165
REMARK   72  A    between atoms: _164  and  _167
REMARK   73  A    between atoms: _167  and  _168
REMARK   74  A    between atoms: _171  and  _173
REMARK   75  A    between atoms: _173  and  _174
REMARK   76  A    between atoms: _173  and  _176
REMARK   77  A    between atoms: _176  and  _177
REMARK   78  A    between atoms: _180  and  _182
REMARK   79  A    between atoms: _182  and  _183
REMARK   80  A    between atoms: _185  and  _187
REMARK   81  A    between atoms: _187  and  _188
REMARK   82  A    between atoms: _190  and  _192
REMARK   83  A    between atoms: _192  and  _193
REMARK   84  A    between atoms: _192  and  _195
REMARK   85  A    between atoms: _195  and  _196
REMARK   86  A    between atoms: _198  and  _200
REMARK   87  A    between atoms: _200  and  _201
REMARK   88  A    between atoms: _200  and  _203
REMARK   89  A    between atoms: _203  and  _204
REMARK   90  A    between atoms: _207  and  _209
REMARK   91  A    between atoms: _209  and  _210
REMARK   92  A    between atoms: _209  and  _212
REMARK   93  A    between atoms: _212  and  _213
REMARK   94  A    between atoms: _213  and  _214
REMARK   95  A    between atoms: _214  and  _215
REMARK   96  A    between atoms: _224  and  _226
REMARK   97  A    between atoms: _226  and  _227
REMARK   98  A    between atoms: _226  and  _229
REMARK   99  A    between atoms: _229  and  _230
REMARK  100  A    between atoms: _236  and  _238
REMARK  101  A    between atoms: _238  and  _239
REMARK  102  A    between atoms: _238  and  _241
REMARK  103  A    between atoms: _241  and  _242
REMARK  104  A    between atoms: _242  and  _243
REMARK  105  A    between atoms: _243  and  _244
REMARK  106  A    between atoms: _244  and  _245
REMARK  107  A    between atoms: _249  and  _251
REMARK  108  A    between atoms: _251  and  _252
REMARK  109  A    between atoms: _254  and  _256
REMARK  110  A    between atoms: _256  and  _257
REMARK  111  A    between atoms: _256  and  _259
REMARK  112  A    between atoms: _259  and  _260
REMARK  113  A    between atoms: _263  and  _265
REMARK  114  A    between atoms: _265  and  _266
REMARK  115  A    between atoms: _265  and  _268
REMARK  116  A    between atoms: _268  and  _269
REMARK  117  A    between atoms: _269  and  _270
REMARK  118  A    between atoms: _270  and  _271
REMARK  119  A    between atoms: _271  and  _272
REMARK  120  A    between atoms: _276  and  _278
REMARK  121  A    between atoms: _278  and  _279
REMARK  122  A    between atoms: _281  and  _283
REMARK  123  A    between atoms: _283  and  _284
REMARK  124  A    between atoms: _283  and  _286
REMARK  125  A    between atoms: _288  and  _290
REMARK  126  A    between atoms: _290  and  _291
REMARK  127  A    between atoms: _290  and  _293
REMARK  128  A    between atoms: _296  and  _298
REMARK  129  A    between atoms: _298  and  _299
REMARK  130  A    between atoms: _298  and  _301
REMARK  131  A    between atoms: _301  and  _302
REMARK  132  A    between atoms: _307  and  _308
REMARK  133  A    between atoms: _310  and  _312
REMARK  134  A    between atoms: _312  and  _313
REMARK  135  A    between atoms: _312  and  _315
REMARK  136  A    between atoms: _315  and  _316
REMARK  137  A    between atoms: _316  and  _317
REMARK  138  A    between atoms: _322  and  _324
REMARK  139  A    between atoms: _324  and  _325
REMARK  140  A    between atoms: _324  and  _327
REMARK  141  A    between atoms: _327  and  _328
REMARK  142  A    between atoms: _331  and  _333
REMARK  143  A    between atoms: _333  and  _334
REMARK  144  A    between atoms: _333  and  _336
REMARK  145  A    between atoms: _336  and  _337
REMARK  146  A    between atoms: _339  and  _341
REMARK  147  A    between atoms: _341  and  _342
REMARK  148  A    between atoms: _341  and  _344
REMARK  149  A    between atoms: _344  and  _345
REMARK  150  A    between atoms: _348  and  _350
REMARK  151  A    between atoms: _350  and  _351
REMARK  152  A    between atoms: _350  and  _353
REMARK  153  A    between atoms: _353  and  _354
REMARK  154  A    between atoms: _357  and  _359
REMARK  155  A    between atoms: _359  and  _360
REMARK  156  A    between atoms: _359  and  _362
REMARK  157  A    between atoms: _362  and  _363
REMARK  158  A    between atoms: _363  and  _364
REMARK  159  A    between atoms: _367  and  _369
REMARK  160  A    between atoms: _369  and  _370
REMARK  161  A    between atoms: _369  and  _372
REMARK  162  A    between atoms: _372  and  _373
REMARK  163  A    between atoms: _375  and  _377
REMARK  164  A    between atoms: _377  and  _378
REMARK  165  A    between atoms: _377  and  _380
REMARK  166  A    between atoms: _380  and  _381
REMARK  167  A    between atoms: _384  and  _386
REMARK  168  A    between atoms: _386  and  _387
REMARK  169  A    between atoms: _389  and  _391
REMARK  170  A    between atoms: _391  and  _392
REMARK  171  A    between atoms: _391  and  _394
REMARK  172  A    between atoms: _394  and  _395
REMARK  173  A    between atoms: _398  and  _400
REMARK  174  A    between atoms: _400  and  _401
REMARK  175  A    between atoms: _400  and  _403
REMARK  176  A    between atoms: _403  and  _404
REMARK  177  A    between atoms: _410  and  _412
REMARK  178  A    between atoms: _412  and  _413
REMARK  179  A    between atoms: _412  and  _415
REMARK  180  A    between atoms: _415  and  _416
REMARK  181  A    between atoms: _422  and  _424
REMARK  182  A    between atoms: _424  and  _425
REMARK  183  A    between atoms: _424  and  _427
REMARK  184  A    between atoms: _427  and  _428
REMARK  185  A    between atoms: _431  and  _433
REMARK  186  A    between atoms: _433  and  _434
REMARK  187  A    between atoms: _433  and  _436
REMARK  188  A    between atoms: _436  and  _437
REMARK  189  A    between atoms: _440  and  _442
REMARK  190  A    between atoms: _442  and  _443
REMARK  191  A    between atoms: _442  and  _445
REMARK  192  A    between atoms: _445  and  _446
REMARK  193  A    between atoms: _452  and  _454
REMARK  194  A    between atoms: _454  and  _455
REMARK  195  A    between atoms: _454  and  _457
REMARK  196  A    between atoms: _457  and  _458
REMARK  197  A    between atoms: _463  and  _465
REMARK  198  A    between atoms: _465  and  _466
REMARK  199  A    between atoms: _465  and  _468
REMARK  200  A    between atoms: _468  and  _469
REMARK  201  A    between atoms: _469  and  _470
REMARK  202  A    between atoms: _473  and  _474
REMARK  203  A    between atoms: _479  and  _481
REMARK  204  A    between atoms: _481  and  _482
REMARK  205  A    between atoms: _484  and  _486
REMARK  206  A    between atoms: _486  and  _487
REMARK  207  A    between atoms: _490  and  _492
REMARK  208  A    between atoms: _492  and  _493
REMARK  209  A    between atoms: _492  and  _495
REMARK  210  A    between atoms: _495  and  _496
REMARK  211  A    between atoms: _499  and  _501
REMARK  212  A    between atoms: _501  and  _502
REMARK  213  A    between atoms: _504  and  _506
REMARK  214  A    between atoms: _506  and  _507
REMARK  215  A    between atoms: _510  and  _512
REMARK  216  A    between atoms: _512  and  _513
REMARK  217  A    between atoms: _512  and  _515
REMARK  218  A    between atoms: _518  and  _520
REMARK  219  A    between atoms: _520  and  _521
REMARK  220  A    between atoms: _520  and  _523
REMARK  221  A    between atoms: _523  and  _524
REMARK  222  A    between atoms: _527  and  _529
REMARK  223  A    between atoms: _529  and  _530
REMARK  224  A    between atoms: _529  and  _532
REMARK  225  A    between atoms: _532  and  _533
REMARK  226  A    between atoms: _533  and  _534
REMARK  227  A    between atoms: _536  and  _538
REMARK  228  A    between atoms: _538  and  _539
REMARK  229  A    between atoms: _538  and  _541
REMARK  230  A    between atoms: _541  and  _542
REMARK  231  A    between atoms: _547  and  _549
REMARK  232  A    between atoms: _549  and  _550
REMARK  233  A    between atoms: _549  and  _552
REMARK  234  A    between atoms: _552  and  _553
REMARK                            x       y       z     vdW  Elec       q    Type
REMARK                         _______ _______ _______ _____ _____    ______ ____
ROOT
ATOM      1  O   HOH     1      31.822 -44.901  14.541  0.00  0.00    +0.000 OA
ENDROOT
TORSDOF 0
REMARK  Name = ../refined-set-2016/3ppm/3ppm_pocket.pdb
REMARK  234 active torsions:
REMARK  status: ('A' for Active; 'I' for Inactive)
REMARK    1  A    between atoms: _1  and  _3
REMARK    2  A    between atoms: _3  and  _4
REMARK    3  A    between atoms: _3  and  _6
REMARK    4  A    between atoms: _6  and  _7
REMARK    5  A    between atoms: _7  and  _8
REMARK    6  A    between atoms: _8  and  _9
REMARK    7  A    between atoms: _9  and  _10
REMARK    8  A    between atoms: _14  and  _16
REMARK    9  A    between atoms: _16  and  _17
REMARK   10  A    between atoms: _16  and  _19
REMARK   11  A    between atoms: _19  and  _20
REMARK   12  A    between atoms: _20  and  _21
REMARK   13  A    between atoms: _24  and  _26
REMARK   14  A    between atoms: _26  and  _27
REMARK   15  A    between atoms: _26  and  _29
REMARK   16  A    between atoms: _31  and  _33
REMARK   17  A    between atoms: _33  and  _34
REMARK   18  A    between atoms: _33  and  _36
REMARK   19  A    between atoms: _36  and  _37
REMARK   20  A    between atoms: _43  and  _45
REMARK   21  A    between atoms: _45  and  _46
REMARK   22  A    between atoms: _45  and  _48
REMARK   23  A    between atoms: _48  and  _49
REMARK   24  A    between atoms: _52  and  _54
REMARK   25  A    between atoms: _54  and  _55
REMARK   26  A    between atoms: _54  and  _57
REMARK   27  A    between atoms: _61  and  _62
REMARK   28  A    between atoms: _67  and  _69
REMARK   29  A    between atoms: _69  and  _70
REMARK   30  A    between atoms: _69  and  _72
REMARK   31  A    between atoms: _72  and  _73
REMARK   32  A    between atoms: _75  and  _77
REMARK   33  A    between atoms: _77  and  _78
REMARK   34  A    between atoms: _77  and  _80
REMARK   35  A    between atoms: _80  and  _81
REMARK   36  A    between atoms: _81  and  _82
REMARK   37  A    between atoms: _84  and  _86
REMARK   38  A    between atoms: _86  and  _87
REMARK   39  A    between atoms: _86  and  _89
REMARK   40  A    between atoms: _89  and  _90
REMARK   41  A    between atoms: _96  and  _98
REMARK   42  A    between atoms: _98  and  _99
REMARK   43  A    between atoms: _98  and  _101
REMARK   44  A    between atoms: _101  and  _102
REMARK   45  A    between atoms: _104  and  _106
REMARK   46  A    between atoms: _106  and  _107
REMARK   47  A    between atoms: _106  and  _109
REMARK   48  A    between atoms: _109  and  _110
REMARK   49  A    between atoms: _115  and  _116
REMARK   50  A    between atoms: _118  and  _120
REMARK   51  A    between atoms: _120  and  _121
REMARK   52  A    between atoms: _120  and  _123
REMARK   53  A    between atoms: _123  and  _124
REMARK   54  A    between atoms: _127  and  _129
REMARK   55  A    between atoms: _129  and  _130
REMARK   56  A    between atoms: _132  and  _134
REMARK   57  A    between atoms: _134  and  _135
REMARK   58  A    between atoms: _134  and  _137
REMARK   59  A    between atoms: _137  and  _138
REMARK   60  A    between atoms: _140  and  _142
REMARK   61  A    between atoms: _142  and  _143
REMARK   62  A    between atoms: _142  and  _145
REMARK   63  A    between atoms: _145  and  _146
REMARK   64  A    between atoms: _148  and  _150
REMARK   65  A    between atoms: _150  and  _151
REMARK   66  A    between atoms: _153  and  _155
REMARK   67  A    between atoms: _155  and  _156
REMARK   68  A    between atoms: _155  and  _158
REMARK   69  A    between atoms: _158  and  _159
REMARK   70  A    between atoms: _162  and  _164
REMARK   71  A    between atoms: _164  and  _165
REMARK   72  A    between atoms: _164  and  _167
REMARK   73  A    between atoms: _167  and  _168
REMARK   74  A    between atoms: _171  and  _173
REMARK   75  A    between atoms: _173  and  _174
REMARK   76  A    between atoms: _173  and  _176
REMARK   77  A    between atoms: _176  and  _177
REMARK   78  A    between atoms: _180  and  _182
REMARK   79  A    between atoms: _182  and  _183
REMARK   80  A    between atoms: _185  and  _187
REMARK   81  A    between atoms: _187  and  _188
REMARK   82  A    between atoms: _190  and  _192
REMARK   83  A    between atoms: _192  and  _193
REMARK   84  A    between atoms: _192  and  _195
REMARK   85  A    between atoms: _195  and  _196
REMARK   86  A    between atoms: _198  and  _200
REMARK   87  A    between atoms: _200  and  _201
REMARK   88  A    between atoms: _200  and  _203
REMARK   89  A    between atoms: _203  and  _204
REMARK   90  A    between atoms: _207  and  _209
REMARK   91  A    between atoms: _209  and  _210
REMARK   92  A    between atoms: _209  and  _212
REMARK   93  A    between atoms: _212  and  _213
REMARK   94  A    between atoms: _213  and  _214
REMARK   95  A    between atoms: _214  and  _215
REMARK   96  A    between atoms: _224  and  _226
REMARK   97  A    between atoms: _226  and  _227
REMARK   98  A    between atoms: _226  and  _229
REMARK   99  A    between atoms: _229  and  _230
REMARK  100  A    between atoms: _236  and  _238
REMARK  101  A    between atoms: _238  and  _239
REMARK  102  A    between atoms: _238  and  _241
REMARK  103  A    between atoms: _241  and  _242
REMARK  104  A    between atoms: _242  and  _243
REMARK  105  A    between atoms: _243  and  _244
REMARK  106  A    between atoms: _244  and  _245
REMARK  107  A    between atoms: _249  and  _251
REMARK  108  A    between atoms: _251  and  _252
REMARK  109  A    between atoms: _254  and  _256
REMARK  110  A    between atoms: _256  and  _257
REMARK  111  A    between atoms: _256  and  _259
REMARK  112  A    between atoms: _259  and  _260
REMARK  113  A    between atoms: _263  and  _265
REMARK  114  A    between atoms: _265  and  _266
REMARK  115  A    between atoms: _265  and  _268
REMARK  116  A    between atoms: _268  and  _269
REMARK  117  A    between atoms: _269  and  _270
REMARK  118  A    between atoms: _270  and  _271
REMARK  119  A    between atoms: _271  and  _272
REMARK  120  A    between atoms: _276  and  _278
REMARK  121  A    between atoms: _278  and  _279
REMARK  122  A    between atoms: _281  and  _283
REMARK  123  A    between atoms: _283  and  _284
REMARK  124  A    between atoms: _283  and  _286
REMARK  125  A    between atoms: _288  and  _290
REMARK  126  A    between atoms: _290  and  _291
REMARK  127  A    between atoms: _290  and  _293
REMARK  128  A    between atoms: _296  and  _298
REMARK  129  A    between atoms: _298  and  _299
REMARK  130  A    between atoms: _298  and  _301
REMARK  131  A    between atoms: _301  and  _302
REMARK  132  A    between atoms: _307  and  _308
REMARK  133  A    between atoms: _310  and  _312
REMARK  134  A    between atoms: _312  and  _313
REMARK  135  A    between atoms: _312  and  _315
REMARK  136  A    between atoms: _315  and  _316
REMARK  137  A    between atoms: _316  and  _317
REMARK  138  A    between atoms: _322  and  _324
REMARK  139  A    between atoms: _324  and  _325
REMARK  140  A    between atoms: _324  and  _327
REMARK  141  A    between atoms: _327  and  _328
REMARK  142  A    between atoms: _331  and  _333
REMARK  143  A    between atoms: _333  and  _334
REMARK  144  A    between atoms: _333  and  _336
REMARK  145  A    between atoms: _336  and  _337
REMARK  146  A    between atoms: _339  and  _341
REMARK  147  A    between atoms: _341  and  _342
REMARK  148  A    between atoms: _341  and  _344
REMARK  149  A    between atoms: _344  and  _345
REMARK  150  A    between atoms: _348  and  _350
REMARK  151  A    between atoms: _350  and  _351
REMARK  152  A    between atoms: _350  and  _353
REMARK  153  A    between atoms: _353  and  _354
REMARK  154  A    between atoms: _357  and  _359
REMARK  155  A    between atoms: _359  and  _360
REMARK  156  A    between atoms: _359  and  _362
REMARK  157  A    between atoms: _362  and  _363
REMARK  158  A    between atoms: _363  and  _364
REMARK  159  A    between atoms: _367  and  _369
REMARK  160  A    between atoms: _369  and  _370
REMARK  161  A    between atoms: _369  and  _372
REMARK  162  A    between atoms: _372  and  _373
REMARK  163  A    between atoms: _375  and  _377
REMARK  164  A    between atoms: _377  and  _378
REMARK  165  A    between atoms: _377  and  _380
REMARK  166  A    between atoms: _380  and  _381
REMARK  167  A    between atoms: _384  and  _386
REMARK  168  A    between atoms: _386  and  _387
REMARK  169  A    between atoms: _389  and  _391
REMARK  170  A    between atoms: _391  and  _392
REMARK  171  A    between atoms: _391  and  _394
REMARK  172  A    between atoms: _394  and  _395
REMARK  173  A    between atoms: _398  and  _400
REMARK  174  A    between atoms: _400  and  _401
REMARK  175  A    between atoms: _400  and  _403
REMARK  176  A    between atoms: _403  and  _404
REMARK  177  A    between atoms: _410  and  _412
REMARK  178  A    between atoms: _412  and  _413
REMARK  179  A    between atoms: _412  and  _415
REMARK  180  A    between atoms: _415  and  _416
REMARK  181  A    between atoms: _422  and  _424
REMARK  182  A    between atoms: _424  and  _425
REMARK  183  A    between atoms: _424  and  _427
REMARK  184  A    between atoms: _427  and  _428
REMARK  185  A    between atoms: _431  and  _433
REMARK  186  A    between atoms: _433  and  _434
REMARK  187  A    between atoms: _433  and  _436
REMARK  188  A    between atoms: _436  and  _437
REMARK  189  A    between atoms: _440  and  _442
REMARK  190  A    between atoms: _442  and  _443
REMARK  191  A    between atoms: _442  and  _445
REMARK  192  A    between atoms: _445  and  _446
REMARK  193  A    between atoms: _452  and  _454
REMARK  194  A    between atoms: _454  and  _455
REMARK  195  A    between atoms: _454  and  _457
REMARK  196  A    between atoms: _457  and  _458
REMARK  197  A    between atoms: _463  and  _465
REMARK  198  A    between atoms: _465  and  _466
REMARK  199  A    between atoms: _465  and  _468
REMARK  200  A    between atoms: _468  and  _469
REMARK  201  A    between atoms: _469  and  _470
REMARK  202  A    between atoms: _473  and  _474
REMARK  203  A    between atoms: _479  and  _481
REMARK  204  A    between atoms: _481  and  _482
REMARK  205  A    between atoms: _484  and  _486
REMARK  206  A    between atoms: _486  and  _487
REMARK  207  A    between atoms: _490  and  _492
REMARK  208  A    between atoms: _492  and  _493
REMARK  209  A    between atoms: _492  and  _495
REMARK  210  A    between atoms: _495  and  _496
REMARK  211  A    between atoms: _499  and  _501
REMARK  212  A    between atoms: _501  and  _502
REMARK  213  A    between atoms: _504  and  _506
REMARK  214  A    between atoms: _506  and  _507
REMARK  215  A    between atoms: _510  and  _512
REMARK  216  A    between atoms: _512  and  _513
REMARK  217  A    between atoms: _512  and  _515
REMARK  218  A    between atoms: _518  and  _520
REMARK  219  A    between atoms: _520  and  _521
REMARK  220  A    between atoms: _520  and  _523
REMARK  221  A    between atoms: _523  and  _524
REMARK  222  A    between atoms: _527  and  _529
REMARK  223  A    between atoms: _529  and  _530
REMARK  224  A    between atoms: _529  and  _532
REMARK  225  A    between atoms: _532  and  _533
REMARK  226  A    between atoms: _533  and  _534
REMARK  227  A    between atoms: _536  and  _538
REMARK  228  A    between atoms: _538  and  _539
REMARK  229  A    between atoms: _538  and  _541
REMARK  230  A    between atoms: _541  and  _542
REMARK  231  A    between atoms: _547  and  _549
REMARK  232  A    between atoms: _549  and  _550
REMARK  233  A    between atoms: _549  and  _552
REMARK  234  A    between atoms: _552  and  _553
REMARK                            x       y       z     vdW  Elec       q    Type
REMARK                         _______ _______ _______ _____ _____    ______ ____
ROOT
ATOM      1  O   HOH     1      44.502 -42.849   1.572  0.00  0.00    +0.000 OA
ENDROOT
TORSDOF 0
REMARK  Name = ../refined-set-2016/3ppm/3ppm_pocket.pdb
REMARK  234 active torsions:
REMARK  status: ('A' for Active; 'I' for Inactive)
REMARK    1  A    between atoms: _1  and  _3
REMARK    2  A    between atoms: _3  and  _4
REMARK    3  A    between atoms: _3  and  _6
REMARK    4  A    between atoms: _6  and  _7
REMARK    5  A    between atoms: _7  and  _8
REMARK    6  A    between atoms: _8  and  _9
REMARK    7  A    between atoms: _9  and  _10
REMARK    8  A    between atoms: _14  and  _16
REMARK    9  A    between atoms: _16  and  _17
REMARK   10  A    between atoms: _16  and  _19
REMARK   11  A    between atoms: _19  and  _20
REMARK   12  A    between atoms: _20  and  _21
REMARK   13  A    between atoms: _24  and  _26
REMARK   14  A    between atoms: _26  and  _27
REMARK   15  A    between atoms: _26  and  _29
REMARK   16  A    between atoms: _31  and  _33
REMARK   17  A    between atoms: _33  and  _34
REMARK   18  A    between atoms: _33  and  _36
REMARK   19  A    between atoms: _36  and  _37
REMARK   20  A    between atoms: _43  and  _45
REMARK   21  A    between atoms: _45  and  _46
REMARK   22  A    between atoms: _45  and  _48
REMARK   23  A    between atoms: _48  and  _49
REMARK   24  A    between atoms: _52  and  _54
REMARK   25  A    between atoms: _54  and  _55
REMARK   26  A    between atoms: _54  and  _57
REMARK   27  A    between atoms: _61  and  _62
REMARK   28  A    between atoms: _67  and  _69
REMARK   29  A    between atoms: _69  and  _70
REMARK   30  A    between atoms: _69  and  _72
REMARK   31  A    between atoms: _72  and  _73
REMARK   32  A    between atoms: _75  and  _77
REMARK   33  A    between atoms: _77  and  _78
REMARK   34  A    between atoms: _77  and  _80
REMARK   35  A    between atoms: _80  and  _81
REMARK   36  A    between atoms: _81  and  _82
REMARK   37  A    between atoms: _84  and  _86
REMARK   38  A    between atoms: _86  and  _87
REMARK   39  A    between atoms: _86  and  _89
REMARK   40  A    between atoms: _89  and  _90
REMARK   41  A    between atoms: _96  and  _98
REMARK   42  A    between atoms: _98  and  _99
REMARK   43  A    between atoms: _98  and  _101
REMARK   44  A    between atoms: _101  and  _102
REMARK   45  A    between atoms: _104  and  _106
REMARK   46  A    between atoms: _106  and  _107
REMARK   47  A    between atoms: _106  and  _109
REMARK   48  A    between atoms: _109  and  _110
REMARK   49  A    between atoms: _115  and  _116
REMARK   50  A    between atoms: _118  and  _120
REMARK   51  A    between atoms: _120  and  _121
REMARK   52  A    between atoms: _120  and  _123
REMARK   53  A    between atoms: _123  and  _124
REMARK   54  A    between atoms: _127  and  _129
REMARK   55  A    between atoms: _129  and  _130
REMARK   56  A    between atoms: _132  and  _134
REMARK   57  A    between atoms: _134  and  _135
REMARK   58  A    between atoms: _134  and  _137
REMARK   59  A    between atoms: _137  and  _138
REMARK   60  A    between atoms: _140  and  _142
REMARK   61  A    between atoms: _142  and  _143
REMARK   62  A    between atoms: _142  and  _145
REMARK   63  A    between atoms: _145  and  _146
REMARK   64  A    between atoms: _148  and  _150
REMARK   65  A    between atoms: _150  and  _151
REMARK   66  A    between atoms: _153  and  _155
REMARK   67  A    between atoms: _155  and  _156
REMARK   68  A    between atoms: _155  and  _158
REMARK   69  A    between atoms: _158  and  _159
REMARK   70  A    between atoms: _162  and  _164
REMARK   71  A    between atoms: _164  and  _165
REMARK   72  A    between atoms: _164  and  _167
REMARK   73  A    between atoms: _167  and  _168
REMARK   74  A    between atoms: _171  and  _173
REMARK   75  A    between atoms: _173  and  _174
REMARK   76  A    between atoms: _173  and  _176
REMARK   77  A    between atoms: _176  and  _177
REMARK   78  A    between atoms: _180  and  _182
REMARK   79  A    between atoms: _182  and  _183
REMARK   80  A    between atoms: _185  and  _187
REMARK   81  A    between atoms: _187  and  _188
REMARK   82  A    between atoms: _190  and  _192
REMARK   83  A    between atoms: _192  and  _193
REMARK   84  A    between atoms: _192  and  _195
REMARK   85  A    between atoms: _195  and  _196
REMARK   86  A    between atoms: _198  and  _200
REMARK   87  A    between atoms: _200  and  _201
REMARK   88  A    between atoms: _200  and  _203
REMARK   89  A    between atoms: _203  and  _204
REMARK   90  A    between atoms: _207  and  _209
REMARK   91  A    between atoms: _209  and  _210
REMARK   92  A    between atoms: _209  and  _212
REMARK   93  A    between atoms: _212  and  _213
REMARK   94  A    between atoms: _213  and  _214
REMARK   95  A    between atoms: _214  and  _215
REMARK   96  A    between atoms: _224  and  _226
REMARK   97  A    between atoms: _226  and  _227
REMARK   98  A    between atoms: _226  and  _229
REMARK   99  A    between atoms: _229  and  _230
REMARK  100  A    between atoms: _236  and  _238
REMARK  101  A    between atoms: _238  and  _239
REMARK  102  A    between atoms: _238  and  _241
REMARK  103  A    between atoms: _241  and  _242
REMARK  104  A    between atoms: _242  and  _243
REMARK  105  A    between atoms: _243  and  _244
REMARK  106  A    between atoms: _244  and  _245
REMARK  107  A    between atoms: _249  and  _251
REMARK  108  A    between atoms: _251  and  _252
REMARK  109  A    between atoms: _254  and  _256
REMARK  110  A    between atoms: _256  and  _257
REMARK  111  A    between atoms: _256  and  _259
REMARK  112  A    between atoms: _259  and  _260
REMARK  113  A    between atoms: _263  and  _265
REMARK  114  A    between atoms: _265  and  _266
REMARK  115  A    between atoms: _265  and  _268
REMARK  116  A    between atoms: _268  and  _269
REMARK  117  A    between atoms: _269  and  _270
REMARK  118  A    between atoms: _270  and  _271
REMARK  119  A    between atoms: _271  and  _272
REMARK  120  A    between atoms: _276  and  _278
REMARK  121  A    between atoms: _278  and  _279
REMARK  122  A    between atoms: _281  and  _283
REMARK  123  A    between atoms: _283  and  _284
REMARK  124  A    between atoms: _283  and  _286
REMARK  125  A    between atoms: _288  and  _290
REMARK  126  A    between atoms: _290  and  _291
REMARK  127  A    between atoms: _290  and  _293
REMARK  128  A    between atoms: _296  and  _298
REMARK  129  A    between atoms: _298  and  _299
REMARK  130  A    between atoms: _298  and  _301
REMARK  131  A    between atoms: _301  and  _302
REMARK  132  A    between atoms: _307  and  _308
REMARK  133  A    between atoms: _310  and  _312
REMARK  134  A    between atoms: _312  and  _313
REMARK  135  A    between atoms: _312  and  _315
REMARK  136  A    between atoms: _315  and  _316
REMARK  137  A    between atoms: _316  and  _317
REMARK  138  A    between atoms: _322  and  _324
REMARK  139  A    between atoms: _324  and  _325
REMARK  140  A    between atoms: _324  and  _327
REMARK  141  A    between atoms: _327  and  _328
REMARK  142  A    between atoms: _331  and  _333
REMARK  143  A    between atoms: _333  and  _334
REMARK  144  A    between atoms: _333  and  _336
REMARK  145  A    between atoms: _336  and  _337
REMARK  146  A    between atoms: _339  and  _341
REMARK  147  A    between atoms: _341  and  _342
REMARK  148  A    between atoms: _341  and  _344
REMARK  149  A    between atoms: _344  and  _345
REMARK  150  A    between atoms: _348  and  _350
REMARK  151  A    between atoms: _350  and  _351
REMARK  152  A    between atoms: _350  and  _353
REMARK  153  A    between atoms: _353  and  _354
REMARK  154  A    between atoms: _357  and  _359
REMARK  155  A    between atoms: _359  and  _360
REMARK  156  A    between atoms: _359  and  _362
REMARK  157  A    between atoms: _362  and  _363
REMARK  158  A    between atoms: _363  and  _364
REMARK  159  A    between atoms: _367  and  _369
REMARK  160  A    between atoms: _369  and  _370
REMARK  161  A    between atoms: _369  and  _372
REMARK  162  A    between atoms: _372  and  _373
REMARK  163  A    between atoms: _375  and  _377
REMARK  164  A    between atoms: _377  and  _378
REMARK  165  A    between atoms: _377  and  _380
REMARK  166  A    between atoms: _380  and  _381
REMARK  167  A    between atoms: _384  and  _386
REMARK  168  A    between atoms: _386  and  _387
REMARK  169  A    between atoms: _389  and  _391
REMARK  170  A    between atoms: _391  and  _392
REMARK  171  A    between atoms: _391  and  _394
REMARK  172  A    between atoms: _394  and  _395
REMARK  173  A    between atoms: _398  and  _400
REMARK  174  A    between atoms: _400  and  _401
REMARK  175  A    between atoms: _400  and  _403
REMARK  176  A    between atoms: _403  and  _404
REMARK  177  A    between atoms: _410  and  _412
REMARK  178  A    between atoms: _412  and  _413
REMARK  179  A    between atoms: _412  and  _415
REMARK  180  A    between atoms: _415  and  _416
REMARK  181  A    between atoms: _422  and  _424
REMARK  182  A    between atoms: _424  and  _425
REMARK  183  A    between atoms: _424  and  _427
REMARK  184  A    between atoms: _427  and  _428
REMARK  185  A    between atoms: _431  and  _433
REMARK  186  A    between atoms: _433  and  _434
REMARK  187  A    between atoms: _433  and  _436
REMARK  188  A    between atoms: _436  and  _437
REMARK  189  A    between atoms: _440  and  _442
REMARK  190  A    between atoms: _442  and  _443
REMARK  191  A    between atoms: _442  and  _445
REMARK  192  A    between atoms: _445  and  _446
REMARK  193  A    between atoms: _452  and  _454
REMARK  194  A    between atoms: _454  and  _455
REMARK  195  A    between atoms: _454  and  _457
REMARK  196  A    between atoms: _457  and  _458
REMARK  197  A    between atoms: _463  and  _465
REMARK  198  A    between atoms: _465  and  _466
REMARK  199  A    between atoms: _465  and  _468
REMARK  200  A    between atoms: _468  and  _469
REMARK  201  A    between atoms: _469  and  _470
REMARK  202  A    between atoms: _473  and  _474
REMARK  203  A    between atoms: _479  and  _481
REMARK  204  A    between atoms: _481  and  _482
REMARK  205  A    between atoms: _484  and  _486
REMARK  206  A    between atoms: _486  and  _487
REMARK  207  A    between atoms: _490  and  _492
REMARK  208  A    between atoms: _492  and  _493
REMARK  209  A    between atoms: _492  and  _495
REMARK  210  A    between atoms: _495  and  _496
REMARK  211  A    between atoms: _499  and  _501
REMARK  212  A    between atoms: _501  and  _502
REMARK  213  A    between atoms: _504  and  _506
REMARK  214  A    between atoms: _506  and  _507
REMARK  215  A    between atoms: _510  and  _512
REMARK  216  A    between atoms: _512  and  _513
REMARK  217  A    between atoms: _512  and  _515
REMARK  218  A    between atoms: _518  and  _520
REMARK  219  A    between atoms: _520  and  _521
REMARK  220  A    between atoms: _520  and  _523
REMARK  221  A    between atoms: _523  and  _524
REMARK  222  A    between atoms: _527  and  _529
REMARK  223  A    between atoms: _529  and  _530
REMARK  224  A    between atoms: _529  and  _532
REMARK  225  A    between atoms: _532  and  _533
REMARK  226  A    between atoms: _533  and  _534
REMARK  227  A    between atoms: _536  and  _538
REMARK  228  A    between atoms: _538  and  _539
REMARK  229  A    between atoms: _538  and  _541
REMARK  230  A    between atoms: _541  and  _542
REMARK  231  A    between atoms: _547  and  _549
REMARK  232  A    between atoms: _549  and  _550
REMARK  233  A    between atoms: _549  and  _552
REMARK  234  A    between atoms: _552  and  _553
REMARK                            x       y       z     vdW  Elec       q    Type
REMARK                         _______ _______ _______ _____ _____    ______ ____
ROOT
ATOM      1  O   HOH     1      43.159 -44.674  -0.026  0.00  0.00    +0.000 OA
ENDROOT
TORSDOF 0
REMARK  Name = ../refined-set-2016/3ppm/3ppm_pocket.pdb
REMARK  234 active torsions:
REMARK  status: ('A' for Active; 'I' for Inactive)
REMARK    1  A    between atoms: _1  and  _3
REMARK    2  A    between atoms: _3  and  _4
REMARK    3  A    between atoms: _3  and  _6
REMARK    4  A    between atoms: _6  and  _7
REMARK    5  A    between atoms: _7  and  _8
REMARK    6  A    between atoms: _8  and  _9
REMARK    7  A    between atoms: _9  and  _10
REMARK    8  A    between atoms: _14  and  _16
REMARK    9  A    between atoms: _16  and  _17
REMARK   10  A    between atoms: _16  and  _19
REMARK   11  A    between atoms: _19  and  _20
REMARK   12  A    between atoms: _20  and  _21
REMARK   13  A    between atoms: _24  and  _26
REMARK   14  A    between atoms: _26  and  _27
REMARK   15  A    between atoms: _26  and  _29
REMARK   16  A    between atoms: _31  and  _33
REMARK   17  A    between atoms: _33  and  _34
REMARK   18  A    between atoms: _33  and  _36
REMARK   19  A    between atoms: _36  and  _37
REMARK   20  A    between atoms: _43  and  _45
REMARK   21  A    between atoms: _45  and  _46
REMARK   22  A    between atoms: _45  and  _48
REMARK   23  A    between atoms: _48  and  _49
REMARK   24  A    between atoms: _52  and  _54
REMARK   25  A    between atoms: _54  and  _55
REMARK   26  A    between atoms: _54  and  _57
REMARK   27  A    between atoms: _61  and  _62
REMARK   28  A    between atoms: _67  and  _69
REMARK   29  A    between atoms: _69  and  _70
REMARK   30  A    between atoms: _69  and  _72
REMARK   31  A    between atoms: _72  and  _73
REMARK   32  A    between atoms: _75  and  _77
REMARK   33  A    between atoms: _77  and  _78
REMARK   34  A    between atoms: _77  and  _80
REMARK   35  A    between atoms: _80  and  _81
REMARK   36  A    between atoms: _81  and  _82
REMARK   37  A    between atoms: _84  and  _86
REMARK   38  A    between atoms: _86  and  _87
REMARK   39  A    between atoms: _86  and  _89
REMARK   40  A    between atoms: _89  and  _90
REMARK   41  A    between atoms: _96  and  _98
REMARK   42  A    between atoms: _98  and  _99
REMARK   43  A    between atoms: _98  and  _101
REMARK   44  A    between atoms: _101  and  _102
REMARK   45  A    between atoms: _104  and  _106
REMARK   46  A    between atoms: _106  and  _107
REMARK   47  A    between atoms: _106  and  _109
REMARK   48  A    between atoms: _109  and  _110
REMARK   49  A    between atoms: _115  and  _116
REMARK   50  A    between atoms: _118  and  _120
REMARK   51  A    between atoms: _120  and  _121
REMARK   52  A    between atoms: _120  and  _123
REMARK   53  A    between atoms: _123  and  _124
REMARK   54  A    between atoms: _127  and  _129
REMARK   55  A    between atoms: _129  and  _130
REMARK   56  A    between atoms: _132  and  _134
REMARK   57  A    between atoms: _134  and  _135
REMARK   58  A    between atoms: _134  and  _137
REMARK   59  A    between atoms: _137  and  _138
REMARK   60  A    between atoms: _140  and  _142
REMARK   61  A    between atoms: _142  and  _143
REMARK   62  A    between atoms: _142  and  _145
REMARK   63  A    between atoms: _145  and  _146
REMARK   64  A    between atoms: _148  and  _150
REMARK   65  A    between atoms: _150  and  _151
REMARK   66  A    between atoms: _153  and  _155
REMARK   67  A    between atoms: _155  and  _156
REMARK   68  A    between atoms: _155  and  _158
REMARK   69  A    between atoms: _158  and  _159
REMARK   70  A    between atoms: _162  and  _164
REMARK   71  A    between atoms: _164  and  _165
REMARK   72  A    between atoms: _164  and  _167
REMARK   73  A    between atoms: _167  and  _168
REMARK   74  A    between atoms: _171  and  _173
REMARK   75  A    between atoms: _173  and  _174
REMARK   76  A    between atoms: _173  and  _176
REMARK   77  A    between atoms: _176  and  _177
REMARK   78  A    between atoms: _180  and  _182
REMARK   79  A    between atoms: _182  and  _183
REMARK   80  A    between atoms: _185  and  _187
REMARK   81  A    between atoms: _187  and  _188
REMARK   82  A    between atoms: _190  and  _192
REMARK   83  A    between atoms: _192  and  _193
REMARK   84  A    between atoms: _192  and  _195
REMARK   85  A    between atoms: _195  and  _196
REMARK   86  A    between atoms: _198  and  _200
REMARK   87  A    between atoms: _200  and  _201
REMARK   88  A    between atoms: _200  and  _203
REMARK   89  A    between atoms: _203  and  _204
REMARK   90  A    between atoms: _207  and  _209
REMARK   91  A    between atoms: _209  and  _210
REMARK   92  A    between atoms: _209  and  _212
REMARK   93  A    between atoms: _212  and  _213
REMARK   94  A    between atoms: _213  and  _214
REMARK   95  A    between atoms: _214  and  _215
REMARK   96  A    between atoms: _224  and  _226
REMARK   97  A    between atoms: _226  and  _227
REMARK   98  A    between atoms: _226  and  _229
REMARK   99  A    between atoms: _229  and  _230
REMARK  100  A    between atoms: _236  and  _238
REMARK  101  A    between atoms: _238  and  _239
REMARK  102  A    between atoms: _238  and  _241
REMARK  103  A    between atoms: _241  and  _242
REMARK  104  A    between atoms: _242  and  _243
REMARK  105  A    between atoms: _243  and  _244
REMARK  106  A    between atoms: _244  and  _245
REMARK  107  A    between atoms: _249  and  _251
REMARK  108  A    between atoms: _251  and  _252
REMARK  109  A    between atoms: _254  and  _256
REMARK  110  A    between atoms: _256  and  _257
REMARK  111  A    between atoms: _256  and  _259
REMARK  112  A    between atoms: _259  and  _260
REMARK  113  A    between atoms: _263  and  _265
REMARK  114  A    between atoms: _265  and  _266
REMARK  115  A    between atoms: _265  and  _268
REMARK  116  A    between atoms: _268  and  _269
REMARK  117  A    between atoms: _269  and  _270
REMARK  118  A    between atoms: _270  and  _271
REMARK  119  A    between atoms: _271  and  _272
REMARK  120  A    between atoms: _276  and  _278
REMARK  121  A    between atoms: _278  and  _279
REMARK  122  A    between atoms: _281  and  _283
REMARK  123  A    between atoms: _283  and  _284
REMARK  124  A    between atoms: _283  and  _286
REMARK  125  A    between atoms: _288  and  _290
REMARK  126  A    between atoms: _290  and  _291
REMARK  127  A    between atoms: _290  and  _293
REMARK  128  A    between atoms: _296  and  _298
REMARK  129  A    between atoms: _298  and  _299
REMARK  130  A    between atoms: _298  and  _301
REMARK  131  A    between atoms: _301  and  _302
REMARK  132  A    between atoms: _307  and  _308
REMARK  133  A    between atoms: _310  and  _312
REMARK  134  A    between atoms: _312  and  _313
REMARK  135  A    between atoms: _312  and  _315
REMARK  136  A    between atoms: _315  and  _316
REMARK  137  A    between atoms: _316  and  _317
REMARK  138  A    between atoms: _322  and  _324
REMARK  139  A    between atoms: _324  and  _325
REMARK  140  A    between atoms: _324  and  _327
REMARK  141  A    between atoms: _327  and  _328
REMARK  142  A    between atoms: _331  and  _333
REMARK  143  A    between atoms: _333  and  _334
REMARK  144  A    between atoms: _333  and  _336
REMARK  145  A    between atoms: _336  and  _337
REMARK  146  A    between atoms: _339  and  _341
REMARK  147  A    between atoms: _341  and  _342
REMARK  148  A    between atoms: _341  and  _344
REMARK  149  A    between atoms: _344  and  _345
REMARK  150  A    between atoms: _348  and  _350
REMARK  151  A    between atoms: _350  and  _351
REMARK  152  A    between atoms: _350  and  _353
REMARK  153  A    between atoms: _353  and  _354
REMARK  154  A    between atoms: _357  and  _359
REMARK  155  A    between atoms: _359  and  _360
REMARK  156  A    between atoms: _359  and  _362
REMARK  157  A    between atoms: _362  and  _363
REMARK  158  A    between atoms: _363  and  _364
REMARK  159  A    between atoms: _367  and  _369
REMARK  160  A    between atoms: _369  and  _370
REMARK  161  A    between atoms: _369  and  _372
REMARK  162  A    between atoms: _372  and  _373
REMARK  163  A    between atoms: _375  and  _377
REMARK  164  A    between atoms: _377  and  _378
REMARK  165  A    between atoms: _377  and  _380
REMARK  166  A    between atoms: _380  and  _381
REMARK  167  A    between atoms: _384  and  _386
REMARK  168  A    between atoms: _386  and  _387
REMARK  169  A    between atoms: _389  and  _391
REMARK  170  A    between atoms: _391  and  _392
REMARK  171  A    between atoms: _391  and  _394
REMARK  172  A    between atoms: _394  and  _395
REMARK  173  A    between atoms: _398  and  _400
REMARK  174  A    between atoms: _400  and  _401
REMARK  175  A    between atoms: _400  and  _403
REMARK  176  A    between atoms: _403  and  _404
REMARK  177  A    between atoms: _410  and  _412
REMARK  178  A    between atoms: _412  and  _413
REMARK  179  A    between atoms: _412  and  _415
REMARK  180  A    between atoms: _415  and  _416
REMARK  181  A    between atoms: _422  and  _424
REMARK  182  A    between atoms: _424  and  _425
REMARK  183  A    between atoms: _424  and  _427
REMARK  184  A    between atoms: _427  and  _428
REMARK  185  A    between atoms: _431  and  _433
REMARK  186  A    between atoms: _433  and  _434
REMARK  187  A    between atoms: _433  and  _436
REMARK  188  A    between atoms: _436  and  _437
REMARK  189  A    between atoms: _440  and  _442
REMARK  190  A    between atoms: _442  and  _443
REMARK  191  A    between atoms: _442  and  _445
REMARK  192  A    between atoms: _445  and  _446
REMARK  193  A    between atoms: _452  and  _454
REMARK  194  A    between atoms: _454  and  _455
REMARK  195  A    between atoms: _454  and  _457
REMARK  196  A    between atoms: _457  and  _458
REMARK  197  A    between atoms: _463  and  _465
REMARK  198  A    between atoms: _465  and  _466
REMARK  199  A    between atoms: _465  and  _468
REMARK  200  A    between atoms: _468  and  _469
REMARK  201  A    between atoms: _469  and  _470
REMARK  202  A    between atoms: _473  and  _474
REMARK  203  A    between atoms: _479  and  _481
REMARK  204  A    between atoms: _481  and  _482
REMARK  205  A    between atoms: _484  and  _486
REMARK  206  A    between atoms: _486  and  _487
REMARK  207  A    between atoms: _490  and  _492
REMARK  208  A    between atoms: _492  and  _493
REMARK  209  A    between atoms: _492  and  _495
REMARK  210  A    between atoms: _495  and  _496
REMARK  211  A    between atoms: _499  and  _501
REMARK  212  A    between atoms: _501  and  _502
REMARK  213  A    between atoms: _504  and  _506
REMARK  214  A    between atoms: _506  and  _507
REMARK  215  A    between atoms: _510  and  _512
REMARK  216  A    between atoms: _512  and  _513
REMARK  217  A    between atoms: _512  and  _515
REMARK  218  A    between atoms: _518  and  _520
REMARK  219  A    between atoms: _520  and  _521
REMARK  220  A    between atoms: _520  and  _523
REMARK  221  A    between atoms: _523  and  _524
REMARK  222  A    between atoms: _527  and  _529
REMARK  223  A    between atoms: _529  and  _530
REMARK  224  A    between atoms: _529  and  _532
REMARK  225  A    between atoms: _532  and  _533
REMARK  226  A    between atoms: _533  and  _534
REMARK  227  A    between atoms: _536  and  _538
REMARK  228  A    between atoms: _538  and  _539
REMARK  229  A    between atoms: _538  and  _541
REMARK  230  A    between atoms: _541  and  _542
REMARK  231  A    between atoms: _547  and  _549
REMARK  232  A    between atoms: _549  and  _550
REMARK  233  A    between atoms: _549  and  _552
REMARK  234  A    between atoms: _552  and  _553
REMARK                            x       y       z     vdW  Elec       q    Type
REMARK                         _______ _______ _______ _____ _____    ______ ____
ROOT
ATOM      1  O   HOH     1      45.261 -48.131   1.630  0.00  0.00    +0.000 OA
ENDROOT
TORSDOF 0
REMARK  Name = ../refined-set-2016/3ppm/3ppm_pocket.pdb
REMARK  234 active torsions:
REMARK  status: ('A' for Active; 'I' for Inactive)
REMARK    1  A    between atoms: _1  and  _3
REMARK    2  A    between atoms: _3  and  _4
REMARK    3  A    between atoms: _3  and  _6
REMARK    4  A    between atoms: _6  and  _7
REMARK    5  A    between atoms: _7  and  _8
REMARK    6  A    between atoms: _8  and  _9
REMARK    7  A    between atoms: _9  and  _10
REMARK    8  A    between atoms: _14  and  _16
REMARK    9  A    between atoms: _16  and  _17
REMARK   10  A    between atoms: _16  and  _19
REMARK   11  A    between atoms: _19  and  _20
REMARK   12  A    between atoms: _20  and  _21
REMARK   13  A    between atoms: _24  and  _26
REMARK   14  A    between atoms: _26  and  _27
REMARK   15  A    between atoms: _26  and  _29
REMARK   16  A    between atoms: _31  and  _33
REMARK   17  A    between atoms: _33  and  _34
REMARK   18  A    between atoms: _33  and  _36
REMARK   19  A    between atoms: _36  and  _37
REMARK   20  A    between atoms: _43  and  _45
REMARK   21  A    between atoms: _45  and  _46
REMARK   22  A    between atoms: _45  and  _48
REMARK   23  A    between atoms: _48  and  _49
REMARK   24  A    between atoms: _52  and  _54
REMARK   25  A    between atoms: _54  and  _55
REMARK   26  A    between atoms: _54  and  _57
REMARK   27  A    between atoms: _61  and  _62
REMARK   28  A    between atoms: _67  and  _69
REMARK   29  A    between atoms: _69  and  _70
REMARK   30  A    between atoms: _69  and  _72
REMARK   31  A    between atoms: _72  and  _73
REMARK   32  A    between atoms: _75  and  _77
REMARK   33  A    between atoms: _77  and  _78
REMARK   34  A    between atoms: _77  and  _80
REMARK   35  A    between atoms: _80  and  _81
REMARK   36  A    between atoms: _81  and  _82
REMARK   37  A    between atoms: _84  and  _86
REMARK   38  A    between atoms: _86  and  _87
REMARK   39  A    between atoms: _86  and  _89
REMARK   40  A    between atoms: _89  and  _90
REMARK   41  A    between atoms: _96  and  _98
REMARK   42  A    between atoms: _98  and  _99
REMARK   43  A    between atoms: _98  and  _101
REMARK   44  A    between atoms: _101  and  _102
REMARK   45  A    between atoms: _104  and  _106
REMARK   46  A    between atoms: _106  and  _107
REMARK   47  A    between atoms: _106  and  _109
REMARK   48  A    between atoms: _109  and  _110
REMARK   49  A    between atoms: _115  and  _116
REMARK   50  A    between atoms: _118  and  _120
REMARK   51  A    between atoms: _120  and  _121
REMARK   52  A    between atoms: _120  and  _123
REMARK   53  A    between atoms: _123  and  _124
REMARK   54  A    between atoms: _127  and  _129
REMARK   55  A    between atoms: _129  and  _130
REMARK   56  A    between atoms: _132  and  _134
REMARK   57  A    between atoms: _134  and  _135
REMARK   58  A    between atoms: _134  and  _137
REMARK   59  A    between atoms: _137  and  _138
REMARK   60  A    between atoms: _140  and  _142
REMARK   61  A    between atoms: _142  and  _143
REMARK   62  A    between atoms: _142  and  _145
REMARK   63  A    between atoms: _145  and  _146
REMARK   64  A    between atoms: _148  and  _150
REMARK   65  A    between atoms: _150  and  _151
REMARK   66  A    between atoms: _153  and  _155
REMARK   67  A    between atoms: _155  and  _156
REMARK   68  A    between atoms: _155  and  _158
REMARK   69  A    between atoms: _158  and  _159
REMARK   70  A    between atoms: _162  and  _164
REMARK   71  A    between atoms: _164  and  _165
REMARK   72  A    between atoms: _164  and  _167
REMARK   73  A    between atoms: _167  and  _168
REMARK   74  A    between atoms: _171  and  _173
REMARK   75  A    between atoms: _173  and  _174
REMARK   76  A    between atoms: _173  and  _176
REMARK   77  A    between atoms: _176  and  _177
REMARK   78  A    between atoms: _180  and  _182
REMARK   79  A    between atoms: _182  and  _183
REMARK   80  A    between atoms: _185  and  _187
REMARK   81  A    between atoms: _187  and  _188
REMARK   82  A    between atoms: _190  and  _192
REMARK   83  A    between atoms: _192  and  _193
REMARK   84  A    between atoms: _192  and  _195
REMARK   85  A    between atoms: _195  and  _196
REMARK   86  A    between atoms: _198  and  _200
REMARK   87  A    between atoms: _200  and  _201
REMARK   88  A    between atoms: _200  and  _203
REMARK   89  A    between atoms: _203  and  _204
REMARK   90  A    between atoms: _207  and  _209
REMARK   91  A    between atoms: _209  and  _210
REMARK   92  A    between atoms: _209  and  _212
REMARK   93  A    between atoms: _212  and  _213
REMARK   94  A    between atoms: _213  and  _214
REMARK   95  A    between atoms: _214  and  _215
REMARK   96  A    between atoms: _224  and  _226
REMARK   97  A    between atoms: _226  and  _227
REMARK   98  A    between atoms: _226  and  _229
REMARK   99  A    between atoms: _229  and  _230
REMARK  100  A    between atoms: _236  and  _238
REMARK  101  A    between atoms: _238  and  _239
REMARK  102  A    between atoms: _238  and  _241
REMARK  103  A    between atoms: _241  and  _242
REMARK  104  A    between atoms: _242  and  _243
REMARK  105  A    between atoms: _243  and  _244
REMARK  106  A    between atoms: _244  and  _245
REMARK  107  A    between atoms: _249  and  _251
REMARK  108  A    between atoms: _251  and  _252
REMARK  109  A    between atoms: _254  and  _256
REMARK  110  A    between atoms: _256  and  _257
REMARK  111  A    between atoms: _256  and  _259
REMARK  112  A    between atoms: _259  and  _260
REMARK  113  A    between atoms: _263  and  _265
REMARK  114  A    between atoms: _265  and  _266
REMARK  115  A    between atoms: _265  and  _268
REMARK  116  A    between atoms: _268  and  _269
REMARK  117  A    between atoms: _269  and  _270
REMARK  118  A    between atoms: _270  and  _271
REMARK  119  A    between atoms: _271  and  _272
REMARK  120  A    between atoms: _276  and  _278
REMARK  121  A    between atoms: _278  and  _279
REMARK  122  A    between atoms: _281  and  _283
REMARK  123  A    between atoms: _283  and  _284
REMARK  124  A    between atoms: _283  and  _286
REMARK  125  A    between atoms: _288  and  _290
REMARK  126  A    between atoms: _290  and  _291
REMARK  127  A    between atoms: _290  and  _293
REMARK  128  A    between atoms: _296  and  _298
REMARK  129  A    between atoms: _298  and  _299
REMARK  130  A    between atoms: _298  and  _301
REMARK  131  A    between atoms: _301  and  _302
REMARK  132  A    between atoms: _307  and  _308
REMARK  133  A    between atoms: _310  and  _312
REMARK  134  A    between atoms: _312  and  _313
REMARK  135  A    between atoms: _312  and  _315
REMARK  136  A    between atoms: _315  and  _316
REMARK  137  A    between atoms: _316  and  _317
REMARK  138  A    between atoms: _322  and  _324
REMARK  139  A    between atoms: _324  and  _325
REMARK  140  A    between atoms: _324  and  _327
REMARK  141  A    between atoms: _327  and  _328
REMARK  142  A    between atoms: _331  and  _333
REMARK  143  A    between atoms: _333  and  _334
REMARK  144  A    between atoms: _333  and  _336
REMARK  145  A    between atoms: _336  and  _337
REMARK  146  A    between atoms: _339  and  _341
REMARK  147  A    between atoms: _341  and  _342
REMARK  148  A    between atoms: _341  and  _344
REMARK  149  A    between atoms: _344  and  _345
REMARK  150  A    between atoms: _348  and  _350
REMARK  151  A    between atoms: _350  and  _351
REMARK  152  A    between atoms: _350  and  _353
REMARK  153  A    between atoms: _353  and  _354
REMARK  154  A    between atoms: _357  and  _359
REMARK  155  A    between atoms: _359  and  _360
REMARK  156  A    between atoms: _359  and  _362
REMARK  157  A    between atoms: _362  and  _363
REMARK  158  A    between atoms: _363  and  _364
REMARK  159  A    between atoms: _367  and  _369
REMARK  160  A    between atoms: _369  and  _370
REMARK  161  A    between atoms: _369  and  _372
REMARK  162  A    between atoms: _372  and  _373
REMARK  163  A    between atoms: _375  and  _377
REMARK  164  A    between atoms: _377  and  _378
REMARK  165  A    between atoms: _377  and  _380
REMARK  166  A    between atoms: _380  and  _381
REMARK  167  A    between atoms: _384  and  _386
REMARK  168  A    between atoms: _386  and  _387
REMARK  169  A    between atoms: _389  and  _391
REMARK  170  A    between atoms: _391  and  _392
REMARK  171  A    between atoms: _391  and  _394
REMARK  172  A    between atoms: _394  and  _395
REMARK  173  A    between atoms: _398  and  _400
REMARK  174  A    between atoms: _400  and  _401
REMARK  175  A    between atoms: _400  and  _403
REMARK  176  A    between atoms: _403  and  _404
REMARK  177  A    between atoms: _410  and  _412
REMARK  178  A    between atoms: _412  and  _413
REMARK  179  A    between atoms: _412  and  _415
REMARK  180  A    between atoms: _415  and  _416
REMARK  181  A    between atoms: _422  and  _424
REMARK  182  A    between atoms: _424  and  _425
REMARK  183  A    between atoms: _424  and  _427
REMARK  184  A    between atoms: _427  and  _428
REMARK  185  A    between atoms: _431  and  _433
REMARK  186  A    between atoms: _433  and  _434
REMARK  187  A    between atoms: _433  and  _436
REMARK  188  A    between atoms: _436  and  _437
REMARK  189  A    between atoms: _440  and  _442
REMARK  190  A    between atoms: _442  and  _443
REMARK  191  A    between atoms: _442  and  _445
REMARK  192  A    between atoms: _445  and  _446
REMARK  193  A    between atoms: _452  and  _454
REMARK  194  A    between atoms: _454  and  _455
REMARK  195  A    between atoms: _454  and  _457
REMARK  196  A    between atoms: _457  and  _458
REMARK  197  A    between atoms: _463  and  _465
REMARK  198  A    between atoms: _465  and  _466
REMARK  199  A    between atoms: _465  and  _468
REMARK  200  A    between atoms: _468  and  _469
REMARK  201  A    between atoms: _469  and  _470
REMARK  202  A    between atoms: _473  and  _474
REMARK  203  A    between atoms: _479  and  _481
REMARK  204  A    between atoms: _481  and  _482
REMARK  205  A    between atoms: _484  and  _486
REMARK  206  A    between atoms: _486  and  _487
REMARK  207  A    between atoms: _490  and  _492
REMARK  208  A    between atoms: _492  and  _493
REMARK  209  A    between atoms: _492  and  _495
REMARK  210  A    between atoms: _495  and  _496
REMARK  211  A    between atoms: _499  and  _501
REMARK  212  A    between atoms: _501  and  _502
REMARK  213  A    between atoms: _504  and  _506
REMARK  214  A    between atoms: _506  and  _507
REMARK  215  A    between atoms: _510  and  _512
REMARK  216  A    between atoms: _512  and  _513
REMARK  217  A    between atoms: _512  and  _515
REMARK  218  A    between atoms: _518  and  _520
REMARK  219  A    between atoms: _520  and  _521
REMARK  220  A    between atoms: _520  and  _523
REMARK  221  A    between atoms: _523  and  _524
REMARK  222  A    between atoms: _527  and  _529
REMARK  223  A    between atoms: _529  and  _530
REMARK  224  A    between atoms: _529  and  _532
REMARK  225  A    between atoms: _532  and  _533
REMARK  226  A    between atoms: _533  and  _534
REMARK  227  A    between atoms: _536  and  _538
REMARK  228  A    between atoms: _538  and  _539
REMARK  229  A    between atoms: _538  and  _541
REMARK  230  A    between atoms: _541  and  _542
REMARK  231  A    between atoms: _547  and  _549
REMARK  232  A    between atoms: _549  and  _550
REMARK  233  A    between atoms: _549  and  _552
REMARK  234  A    between atoms: _552  and  _553
REMARK                            x       y       z     vdW  Elec       q    Type
REMARK                         _______ _______ _______ _____ _____    ______ ____
ROOT
ATOM      1  O   HOH     1      49.428 -47.357   2.485  0.00  0.00    +0.000 OA
ENDROOT
TORSDOF 0
REMARK  Name = ../refined-set-2016/3ppm/3ppm_pocket.pdb
REMARK  234 active torsions:
REMARK  status: ('A' for Active; 'I' for Inactive)
REMARK    1  A    between atoms: _1  and  _3
REMARK    2  A    between atoms: _3  and  _4
REMARK    3  A    between atoms: _3  and  _6
REMARK    4  A    between atoms: _6  and  _7
REMARK    5  A    between atoms: _7  and  _8
REMARK    6  A    between atoms: _8  and  _9
REMARK    7  A    between atoms: _9  and  _10
REMARK    8  A    between atoms: _14  and  _16
REMARK    9  A    between atoms: _16  and  _17
REMARK   10  A    between atoms: _16  and  _19
REMARK   11  A    between atoms: _19  and  _20
REMARK   12  A    between atoms: _20  and  _21
REMARK   13  A    between atoms: _24  and  _26
REMARK   14  A    between atoms: _26  and  _27
REMARK   15  A    between atoms: _26  and  _29
REMARK   16  A    between atoms: _31  and  _33
REMARK   17  A    between atoms: _33  and  _34
REMARK   18  A    between atoms: _33  and  _36
REMARK   19  A    between atoms: _36  and  _37
REMARK   20  A    between atoms: _43  and  _45
REMARK   21  A    between atoms: _45  and  _46
REMARK   22  A    between atoms: _45  and  _48
REMARK   23  A    between atoms: _48  and  _49
REMARK   24  A    between atoms: _52  and  _54
REMARK   25  A    between atoms: _54  and  _55
REMARK   26  A    between atoms: _54  and  _57
REMARK   27  A    between atoms: _61  and  _62
REMARK   28  A    between atoms: _67  and  _69
REMARK   29  A    between atoms: _69  and  _70
REMARK   30  A    between atoms: _69  and  _72
REMARK   31  A    between atoms: _72  and  _73
REMARK   32  A    between atoms: _75  and  _77
REMARK   33  A    between atoms: _77  and  _78
REMARK   34  A    between atoms: _77  and  _80
REMARK   35  A    between atoms: _80  and  _81
REMARK   36  A    between atoms: _81  and  _82
REMARK   37  A    between atoms: _84  and  _86
REMARK   38  A    between atoms: _86  and  _87
REMARK   39  A    between atoms: _86  and  _89
REMARK   40  A    between atoms: _89  and  _90
REMARK   41  A    between atoms: _96  and  _98
REMARK   42  A    between atoms: _98  and  _99
REMARK   43  A    between atoms: _98  and  _101
REMARK   44  A    between atoms: _101  and  _102
REMARK   45  A    between atoms: _104  and  _106
REMARK   46  A    between atoms: _106  and  _107
REMARK   47  A    between atoms: _106  and  _109
REMARK   48  A    between atoms: _109  and  _110
REMARK   49  A    between atoms: _115  and  _116
REMARK   50  A    between atoms: _118  and  _120
REMARK   51  A    between atoms: _120  and  _121
REMARK   52  A    between atoms: _120  and  _123
REMARK   53  A    between atoms: _123  and  _124
REMARK   54  A    between atoms: _127  and  _129
REMARK   55  A    between atoms: _129  and  _130
REMARK   56  A    between atoms: _132  and  _134
REMARK   57  A    between atoms: _134  and  _135
REMARK   58  A    between atoms: _134  and  _137
REMARK   59  A    between atoms: _137  and  _138
REMARK   60  A    between atoms: _140  and  _142
REMARK   61  A    between atoms: _142  and  _143
REMARK   62  A    between atoms: _142  and  _145
REMARK   63  A    between atoms: _145  and  _146
REMARK   64  A    between atoms: _148  and  _150
REMARK   65  A    between atoms: _150  and  _151
REMARK   66  A    between atoms: _153  and  _155
REMARK   67  A    between atoms: _155  and  _156
REMARK   68  A    between atoms: _155  and  _158
REMARK   69  A    between atoms: _158  and  _159
REMARK   70  A    between atoms: _162  and  _164
REMARK   71  A    between atoms: _164  and  _165
REMARK   72  A    between atoms: _164  and  _167
REMARK   73  A    between atoms: _167  and  _168
REMARK   74  A    between atoms: _171  and  _173
REMARK   75  A    between atoms: _173  and  _174
REMARK   76  A    between atoms: _173  and  _176
REMARK   77  A    between atoms: _176  and  _177
REMARK   78  A    between atoms: _180  and  _182
REMARK   79  A    between atoms: _182  and  _183
REMARK   80  A    between atoms: _185  and  _187
REMARK   81  A    between atoms: _187  and  _188
REMARK   82  A    between atoms: _190  and  _192
REMARK   83  A    between atoms: _192  and  _193
REMARK   84  A    between atoms: _192  and  _195
REMARK   85  A    between atoms: _195  and  _196
REMARK   86  A    between atoms: _198  and  _200
REMARK   87  A    between atoms: _200  and  _201
REMARK   88  A    between atoms: _200  and  _203
REMARK   89  A    between atoms: _203  and  _204
REMARK   90  A    between atoms: _207  and  _209
REMARK   91  A    between atoms: _209  and  _210
REMARK   92  A    between atoms: _209  and  _212
REMARK   93  A    between atoms: _212  and  _213
REMARK   94  A    between atoms: _213  and  _214
REMARK   95  A    between atoms: _214  and  _215
REMARK   96  A    between atoms: _224  and  _226
REMARK   97  A    between atoms: _226  and  _227
REMARK   98  A    between atoms: _226  and  _229
REMARK   99  A    between atoms: _229  and  _230
REMARK  100  A    between atoms: _236  and  _238
REMARK  101  A    between atoms: _238  and  _239
REMARK  102  A    between atoms: _238  and  _241
REMARK  103  A    between atoms: _241  and  _242
REMARK  104  A    between atoms: _242  and  _243
REMARK  105  A    between atoms: _243  and  _244
REMARK  106  A    between atoms: _244  and  _245
REMARK  107  A    between atoms: _249  and  _251
REMARK  108  A    between atoms: _251  and  _252
REMARK  109  A    between atoms: _254  and  _256
REMARK  110  A    between atoms: _256  and  _257
REMARK  111  A    between atoms: _256  and  _259
REMARK  112  A    between atoms: _259  and  _260
REMARK  113  A    between atoms: _263  and  _265
REMARK  114  A    between atoms: _265  and  _266
REMARK  115  A    between atoms: _265  and  _268
REMARK  116  A    between atoms: _268  and  _269
REMARK  117  A    between atoms: _269  and  _270
REMARK  118  A    between atoms: _270  and  _271
REMARK  119  A    between atoms: _271  and  _272
REMARK  120  A    between atoms: _276  and  _278
REMARK  121  A    between atoms: _278  and  _279
REMARK  122  A    between atoms: _281  and  _283
REMARK  123  A    between atoms: _283  and  _284
REMARK  124  A    between atoms: _283  and  _286
REMARK  125  A    between atoms: _288  and  _290
REMARK  126  A    between atoms: _290  and  _291
REMARK  127  A    between atoms: _290  and  _293
REMARK  128  A    between atoms: _296  and  _298
REMARK  129  A    between atoms: _298  and  _299
REMARK  130  A    between atoms: _298  and  _301
REMARK  131  A    between atoms: _301  and  _302
REMARK  132  A    between atoms: _307  and  _308
REMARK  133  A    between atoms: _310  and  _312
REMARK  134  A    between atoms: _312  and  _313
REMARK  135  A    between atoms: _312  and  _315
REMARK  136  A    between atoms: _315  and  _316
REMARK  137  A    between atoms: _316  and  _317
REMARK  138  A    between atoms: _322  and  _324
REMARK  139  A    between atoms: _324  and  _325
REMARK  140  A    between atoms: _324  and  _327
REMARK  141  A    between atoms: _327  and  _328
REMARK  142  A    between atoms: _331  and  _333
REMARK  143  A    between atoms: _333  and  _334
REMARK  144  A    between atoms: _333  and  _336
REMARK  145  A    between atoms: _336  and  _337
REMARK  146  A    between atoms: _339  and  _341
REMARK  147  A    between atoms: _341  and  _342
REMARK  148  A    between atoms: _341  and  _344
REMARK  149  A    between atoms: _344  and  _345
REMARK  150  A    between atoms: _348  and  _350
REMARK  151  A    between atoms: _350  and  _351
REMARK  152  A    between atoms: _350  and  _353
REMARK  153  A    between atoms: _353  and  _354
REMARK  154  A    between atoms: _357  and  _359
REMARK  155  A    between atoms: _359  and  _360
REMARK  156  A    between atoms: _359  and  _362
REMARK  157  A    between atoms: _362  and  _363
REMARK  158  A    between atoms: _363  and  _364
REMARK  159  A    between atoms: _367  and  _369
REMARK  160  A    between atoms: _369  and  _370
REMARK  161  A    between atoms: _369  and  _372
REMARK  162  A    between atoms: _372  and  _373
REMARK  163  A    between atoms: _375  and  _377
REMARK  164  A    between atoms: _377  and  _378
REMARK  165  A    between atoms: _377  and  _380
REMARK  166  A    between atoms: _380  and  _381
REMARK  167  A    between atoms: _384  and  _386
REMARK  168  A    between atoms: _386  and  _387
REMARK  169  A    between atoms: _389  and  _391
REMARK  170  A    between atoms: _391  and  _392
REMARK  171  A    between atoms: _391  and  _394
REMARK  172  A    between atoms: _394  and  _395
REMARK  173  A    between atoms: _398  and  _400
REMARK  174  A    between atoms: _400  and  _401
REMARK  175  A    between atoms: _400  and  _403
REMARK  176  A    between atoms: _403  and  _404
REMARK  177  A    between atoms: _410  and  _412
REMARK  178  A    between atoms: _412  and  _413
REMARK  179  A    between atoms: _412  and  _415
REMARK  180  A    between atoms: _415  and  _416
REMARK  181  A    between atoms: _422  and  _424
REMARK  182  A    between atoms: _424  and  _425
REMARK  183  A    between atoms: _424  and  _427
REMARK  184  A    between atoms: _427  and  _428
REMARK  185  A    between atoms: _431  and  _433
REMARK  186  A    between atoms: _433  and  _434
REMARK  187  A    between atoms: _433  and  _436
REMARK  188  A    between atoms: _436  and  _437
REMARK  189  A    between atoms: _440  and  _442
REMARK  190  A    between atoms: _442  and  _443
REMARK  191  A    between atoms: _442  and  _445
REMARK  192  A    between atoms: _445  and  _446
REMARK  193  A    between atoms: _452  and  _454
REMARK  194  A    between atoms: _454  and  _455
REMARK  195  A    between atoms: _454  and  _457
REMARK  196  A    between atoms: _457  and  _458
REMARK  197  A    between atoms: _463  and  _465
REMARK  198  A    between atoms: _465  and  _466
REMARK  199  A    between atoms: _465  and  _468
REMARK  200  A    between atoms: _468  and  _469
REMARK  201  A    between atoms: _469  and  _470
REMARK  202  A    between atoms: _473  and  _474
REMARK  203  A    between atoms: _479  and  _481
REMARK  204  A    between atoms: _481  and  _482
REMARK  205  A    between atoms: _484  and  _486
REMARK  206  A    between atoms: _486  and  _487
REMARK  207  A    between atoms: _490  and  _492
REMARK  208  A    between atoms: _492  and  _493
REMARK  209  A    between atoms: _492  and  _495
REMARK  210  A    between atoms: _495  and  _496
REMARK  211  A    between atoms: _499  and  _501
REMARK  212  A    between atoms: _501  and  _502
REMARK  213  A    between atoms: _504  and  _506
REMARK  214  A    between atoms: _506  and  _507
REMARK  215  A    between atoms: _510  and  _512
REMARK  216  A    between atoms: _512  and  _513
REMARK  217  A    between atoms: _512  and  _515
REMARK  218  A    between atoms: _518  and  _520
REMARK  219  A    between atoms: _520  and  _521
REMARK  220  A    between atoms: _520  and  _523
REMARK  221  A    between atoms: _523  and  _524
REMARK  222  A    between atoms: _527  and  _529
REMARK  223  A    between atoms: _529  and  _530
REMARK  224  A    between atoms: _529  and  _532
REMARK  225  A    between atoms: _532  and  _533
REMARK  226  A    between atoms: _533  and  _534
REMARK  227  A    between atoms: _536  and  _538
REMARK  228  A    between atoms: _538  and  _539
REMARK  229  A    between atoms: _538  and  _541
REMARK  230  A    between atoms: _541  and  _542
REMARK  231  A    between atoms: _547  and  _549
REMARK  232  A    between atoms: _549  and  _550
REMARK  233  A    between atoms: _549  and  _552
REMARK  234  A    between atoms: _552  and  _553
REMARK                            x       y       z     vdW  Elec       q    Type
REMARK                         _______ _______ _______ _____ _____    ______ ____
ROOT
ATOM      1  O   HOH     1      46.460 -44.325   3.003  0.00  0.00    +0.000 OA
ENDROOT
TORSDOF 0
REMARK  Name = ../refined-set-2016/3ppm/3ppm_pocket.pdb
REMARK  234 active torsions:
REMARK  status: ('A' for Active; 'I' for Inactive)
REMARK    1  A    between atoms: _1  and  _3
REMARK    2  A    between atoms: _3  and  _4
REMARK    3  A    between atoms: _3  and  _6
REMARK    4  A    between atoms: _6  and  _7
REMARK    5  A    between atoms: _7  and  _8
REMARK    6  A    between atoms: _8  and  _9
REMARK    7  A    between atoms: _9  and  _10
REMARK    8  A    between atoms: _14  and  _16
REMARK    9  A    between atoms: _16  and  _17
REMARK   10  A    between atoms: _16  and  _19
REMARK   11  A    between atoms: _19  and  _20
REMARK   12  A    between atoms: _20  and  _21
REMARK   13  A    between atoms: _24  and  _26
REMARK   14  A    between atoms: _26  and  _27
REMARK   15  A    between atoms: _26  and  _29
REMARK   16  A    between atoms: _31  and  _33
REMARK   17  A    between atoms: _33  and  _34
REMARK   18  A    between atoms: _33  and  _36
REMARK   19  A    between atoms: _36  and  _37
REMARK   20  A    between atoms: _43  and  _45
REMARK   21  A    between atoms: _45  and  _46
REMARK   22  A    between atoms: _45  and  _48
REMARK   23  A    between atoms: _48  and  _49
REMARK   24  A    between atoms: _52  and  _54
REMARK   25  A    between atoms: _54  and  _55
REMARK   26  A    between atoms: _54  and  _57
REMARK   27  A    between atoms: _61  and  _62
REMARK   28  A    between atoms: _67  and  _69
REMARK   29  A    between atoms: _69  and  _70
REMARK   30  A    between atoms: _69  and  _72
REMARK   31  A    between atoms: _72  and  _73
REMARK   32  A    between atoms: _75  and  _77
REMARK   33  A    between atoms: _77  and  _78
REMARK   34  A    between atoms: _77  and  _80
REMARK   35  A    between atoms: _80  and  _81
REMARK   36  A    between atoms: _81  and  _82
REMARK   37  A    between atoms: _84  and  _86
REMARK   38  A    between atoms: _86  and  _87
REMARK   39  A    between atoms: _86  and  _89
REMARK   40  A    between atoms: _89  and  _90
REMARK   41  A    between atoms: _96  and  _98
REMARK   42  A    between atoms: _98  and  _99
REMARK   43  A    between atoms: _98  and  _101
REMARK   44  A    between atoms: _101  and  _102
REMARK   45  A    between atoms: _104  and  _106
REMARK   46  A    between atoms: _106  and  _107
REMARK   47  A    between atoms: _106  and  _109
REMARK   48  A    between atoms: _109  and  _110
REMARK   49  A    between atoms: _115  and  _116
REMARK   50  A    between atoms: _118  and  _120
REMARK   51  A    between atoms: _120  and  _121
REMARK   52  A    between atoms: _120  and  _123
REMARK   53  A    between atoms: _123  and  _124
REMARK   54  A    between atoms: _127  and  _129
REMARK   55  A    between atoms: _129  and  _130
REMARK   56  A    between atoms: _132  and  _134
REMARK   57  A    between atoms: _134  and  _135
REMARK   58  A    between atoms: _134  and  _137
REMARK   59  A    between atoms: _137  and  _138
REMARK   60  A    between atoms: _140  and  _142
REMARK   61  A    between atoms: _142  and  _143
REMARK   62  A    between atoms: _142  and  _145
REMARK   63  A    between atoms: _145  and  _146
REMARK   64  A    between atoms: _148  and  _150
REMARK   65  A    between atoms: _150  and  _151
REMARK   66  A    between atoms: _153  and  _155
REMARK   67  A    between atoms: _155  and  _156
REMARK   68  A    between atoms: _155  and  _158
REMARK   69  A    between atoms: _158  and  _159
REMARK   70  A    between atoms: _162  and  _164
REMARK   71  A    between atoms: _164  and  _165
REMARK   72  A    between atoms: _164  and  _167
REMARK   73  A    between atoms: _167  and  _168
REMARK   74  A    between atoms: _171  and  _173
REMARK   75  A    between atoms: _173  and  _174
REMARK   76  A    between atoms: _173  and  _176
REMARK   77  A    between atoms: _176  and  _177
REMARK   78  A    between atoms: _180  and  _182
REMARK   79  A    between atoms: _182  and  _183
REMARK   80  A    between atoms: _185  and  _187
REMARK   81  A    between atoms: _187  and  _188
REMARK   82  A    between atoms: _190  and  _192
REMARK   83  A    between atoms: _192  and  _193
REMARK   84  A    between atoms: _192  and  _195
REMARK   85  A    between atoms: _195  and  _196
REMARK   86  A    between atoms: _198  and  _200
REMARK   87  A    between atoms: _200  and  _201
REMARK   88  A    between atoms: _200  and  _203
REMARK   89  A    between atoms: _203  and  _204
REMARK   90  A    between atoms: _207  and  _209
REMARK   91  A    between atoms: _209  and  _210
REMARK   92  A    between atoms: _209  and  _212
REMARK   93  A    between atoms: _212  and  _213
REMARK   94  A    between atoms: _213  and  _214
REMARK   95  A    between atoms: _214  and  _215
REMARK   96  A    between atoms: _224  and  _226
REMARK   97  A    between atoms: _226  and  _227
REMARK   98  A    between atoms: _226  and  _229
REMARK   99  A    between atoms: _229  and  _230
REMARK  100  A    between atoms: _236  and  _238
REMARK  101  A    between atoms: _238  and  _239
REMARK  102  A    between atoms: _238  and  _241
REMARK  103  A    between atoms: _241  and  _242
REMARK  104  A    between atoms: _242  and  _243
REMARK  105  A    between atoms: _243  and  _244
REMARK  106  A    between atoms: _244  and  _245
REMARK  107  A    between atoms: _249  and  _251
REMARK  108  A    between atoms: _251  and  _252
REMARK  109  A    between atoms: _254  and  _256
REMARK  110  A    between atoms: _256  and  _257
REMARK  111  A    between atoms: _256  and  _259
REMARK  112  A    between atoms: _259  and  _260
REMARK  113  A    between atoms: _263  and  _265
REMARK  114  A    between atoms: _265  and  _266
REMARK  115  A    between atoms: _265  and  _268
REMARK  116  A    between atoms: _268  and  _269
REMARK  117  A    between atoms: _269  and  _270
REMARK  118  A    between atoms: _270  and  _271
REMARK  119  A    between atoms: _271  and  _272
REMARK  120  A    between atoms: _276  and  _278
REMARK  121  A    between atoms: _278  and  _279
REMARK  122  A    between atoms: _281  and  _283
REMARK  123  A    between atoms: _283  and  _284
REMARK  124  A    between atoms: _283  and  _286
REMARK  125  A    between atoms: _288  and  _290
REMARK  126  A    between atoms: _290  and  _291
REMARK  127  A    between atoms: _290  and  _293
REMARK  128  A    between atoms: _296  and  _298
REMARK  129  A    between atoms: _298  and  _299
REMARK  130  A    between atoms: _298  and  _301
REMARK  131  A    between atoms: _301  and  _302
REMARK  132  A    between atoms: _307  and  _308
REMARK  133  A    between atoms: _310  and  _312
REMARK  134  A    between atoms: _312  and  _313
REMARK  135  A    between atoms: _312  and  _315
REMARK  136  A    between atoms: _315  and  _316
REMARK  137  A    between atoms: _316  and  _317
REMARK  138  A    between atoms: _322  and  _324
REMARK  139  A    between atoms: _324  and  _325
REMARK  140  A    between atoms: _324  and  _327
REMARK  141  A    between atoms: _327  and  _328
REMARK  142  A    between atoms: _331  and  _333
REMARK  143  A    between atoms: _333  and  _334
REMARK  144  A    between atoms: _333  and  _336
REMARK  145  A    between atoms: _336  and  _337
REMARK  146  A    between atoms: _339  and  _341
REMARK  147  A    between atoms: _341  and  _342
REMARK  148  A    between atoms: _341  and  _344
REMARK  149  A    between atoms: _344  and  _345
REMARK  150  A    between atoms: _348  and  _350
REMARK  151  A    between atoms: _350  and  _351
REMARK  152  A    between atoms: _350  and  _353
REMARK  153  A    between atoms: _353  and  _354
REMARK  154  A    between atoms: _357  and  _359
REMARK  155  A    between atoms: _359  and  _360
REMARK  156  A    between atoms: _359  and  _362
REMARK  157  A    between atoms: _362  and  _363
REMARK  158  A    between atoms: _363  and  _364
REMARK  159  A    between atoms: _367  and  _369
REMARK  160  A    between atoms: _369  and  _370
REMARK  161  A    between atoms: _369  and  _372
REMARK  162  A    between atoms: _372  and  _373
REMARK  163  A    between atoms: _375  and  _377
REMARK  164  A    between atoms: _377  and  _378
REMARK  165  A    between atoms: _377  and  _380
REMARK  166  A    between atoms: _380  and  _381
REMARK  167  A    between atoms: _384  and  _386
REMARK  168  A    between atoms: _386  and  _387
REMARK  169  A    between atoms: _389  and  _391
REMARK  170  A    between atoms: _391  and  _392
REMARK  171  A    between atoms: _391  and  _394
REMARK  172  A    between atoms: _394  and  _395
REMARK  173  A    between atoms: _398  and  _400
REMARK  174  A    between atoms: _400  and  _401
REMARK  175  A    between atoms: _400  and  _403
REMARK  176  A    between atoms: _403  and  _404
REMARK  177  A    between atoms: _410  and  _412
REMARK  178  A    between atoms: _412  and  _413
REMARK  179  A    between atoms: _412  and  _415
REMARK  180  A    between atoms: _415  and  _416
REMARK  181  A    between atoms: _422  and  _424
REMARK  182  A    between atoms: _424  and  _425
REMARK  183  A    between atoms: _424  and  _427
REMARK  184  A    between atoms: _427  and  _428
REMARK  185  A    between atoms: _431  and  _433
REMARK  186  A    between atoms: _433  and  _434
REMARK  187  A    between atoms: _433  and  _436
REMARK  188  A    between atoms: _436  and  _437
REMARK  189  A    between atoms: _440  and  _442
REMARK  190  A    between atoms: _442  and  _443
REMARK  191  A    between atoms: _442  and  _445
REMARK  192  A    between atoms: _445  and  _446
REMARK  193  A    between atoms: _452  and  _454
REMARK  194  A    between atoms: _454  and  _455
REMARK  195  A    between atoms: _454  and  _457
REMARK  196  A    between atoms: _457  and  _458
REMARK  197  A    between atoms: _463  and  _465
REMARK  198  A    between atoms: _465  and  _466
REMARK  199  A    between atoms: _465  and  _468
REMARK  200  A    between atoms: _468  and  _469
REMARK  201  A    between atoms: _469  and  _470
REMARK  202  A    between atoms: _473  and  _474
REMARK  203  A    between atoms: _479  and  _481
REMARK  204  A    between atoms: _481  and  _482
REMARK  205  A    between atoms: _484  and  _486
REMARK  206  A    between atoms: _486  and  _487
REMARK  207  A    between atoms: _490  and  _492
REMARK  208  A    between atoms: _492  and  _493
REMARK  209  A    between atoms: _492  and  _495
REMARK  210  A    between atoms: _495  and  _496
REMARK  211  A    between atoms: _499  and  _501
REMARK  212  A    between atoms: _501  and  _502
REMARK  213  A    between atoms: _504  and  _506
REMARK  214  A    between atoms: _506  and  _507
REMARK  215  A    between atoms: _510  and  _512
REMARK  216  A    between atoms: _512  and  _513
REMARK  217  A    between atoms: _512  and  _515
REMARK  218  A    between atoms: _518  and  _520
REMARK  219  A    between atoms: _520  and  _521
REMARK  220  A    between atoms: _520  and  _523
REMARK  221  A    between atoms: _523  and  _524
REMARK  222  A    between atoms: _527  and  _529
REMARK  223  A    between atoms: _529  and  _530
REMARK  224  A    between atoms: _529  and  _532
REMARK  225  A    between atoms: _532  and  _533
REMARK  226  A    between atoms: _533  and  _534
REMARK  227  A    between atoms: _536  and  _538
REMARK  228  A    between atoms: _538  and  _539
REMARK  229  A    between atoms: _538  and  _541
REMARK  230  A    between atoms: _541  and  _542
REMARK  231  A    between atoms: _547  and  _549
REMARK  232  A    between atoms: _549  and  _550
REMARK  233  A    between atoms: _549  and  _552
REMARK  234  A    between atoms: _552  and  _553
REMARK                            x       y       z     vdW  Elec       q    Type
REMARK                         _______ _______ _______ _____ _____    ______ ____
ROOT
ATOM      1  O   HOH     1      42.457 -46.150   1.870  0.00  0.00    +0.000 OA
ENDROOT
TORSDOF 0
REMARK  Name = ../refined-set-2016/3ppm/3ppm_pocket.pdb
REMARK  234 active torsions:
REMARK  status: ('A' for Active; 'I' for Inactive)
REMARK    1  A    between atoms: _1  and  _3
REMARK    2  A    between atoms: _3  and  _4
REMARK    3  A    between atoms: _3  and  _6
REMARK    4  A    between atoms: _6  and  _7
REMARK    5  A    between atoms: _7  and  _8
REMARK    6  A    between atoms: _8  and  _9
REMARK    7  A    between atoms: _9  and  _10
REMARK    8  A    between atoms: _14  and  _16
REMARK    9  A    between atoms: _16  and  _17
REMARK   10  A    between atoms: _16  and  _19
REMARK   11  A    between atoms: _19  and  _20
REMARK   12  A    between atoms: _20  and  _21
REMARK   13  A    between atoms: _24  and  _26
REMARK   14  A    between atoms: _26  and  _27
REMARK   15  A    between atoms: _26  and  _29
REMARK   16  A    between atoms: _31  and  _33
REMARK   17  A    between atoms: _33  and  _34
REMARK   18  A    between atoms: _33  and  _36
REMARK   19  A    between atoms: _36  and  _37
REMARK   20  A    between atoms: _43  and  _45
REMARK   21  A    between atoms: _45  and  _46
REMARK   22  A    between atoms: _45  and  _48
REMARK   23  A    between atoms: _48  and  _49
REMARK   24  A    between atoms: _52  and  _54
REMARK   25  A    between atoms: _54  and  _55
REMARK   26  A    between atoms: _54  and  _57
REMARK   27  A    between atoms: _61  and  _62
REMARK   28  A    between atoms: _67  and  _69
REMARK   29  A    between atoms: _69  and  _70
REMARK   30  A    between atoms: _69  and  _72
REMARK   31  A    between atoms: _72  and  _73
REMARK   32  A    between atoms: _75  and  _77
REMARK   33  A    between atoms: _77  and  _78
REMARK   34  A    between atoms: _77  and  _80
REMARK   35  A    between atoms: _80  and  _81
REMARK   36  A    between atoms: _81  and  _82
REMARK   37  A    between atoms: _84  and  _86
REMARK   38  A    between atoms: _86  and  _87
REMARK   39  A    between atoms: _86  and  _89
REMARK   40  A    between atoms: _89  and  _90
REMARK   41  A    between atoms: _96  and  _98
REMARK   42  A    between atoms: _98  and  _99
REMARK   43  A    between atoms: _98  and  _101
REMARK   44  A    between atoms: _101  and  _102
REMARK   45  A    between atoms: _104  and  _106
REMARK   46  A    between atoms: _106  and  _107
REMARK   47  A    between atoms: _106  and  _109
REMARK   48  A    between atoms: _109  and  _110
REMARK   49  A    between atoms: _115  and  _116
REMARK   50  A    between atoms: _118  and  _120
REMARK   51  A    between atoms: _120  and  _121
REMARK   52  A    between atoms: _120  and  _123
REMARK   53  A    between atoms: _123  and  _124
REMARK   54  A    between atoms: _127  and  _129
REMARK   55  A    between atoms: _129  and  _130
REMARK   56  A    between atoms: _132  and  _134
REMARK   57  A    between atoms: _134  and  _135
REMARK   58  A    between atoms: _134  and  _137
REMARK   59  A    between atoms: _137  and  _138
REMARK   60  A    between atoms: _140  and  _142
REMARK   61  A    between atoms: _142  and  _143
REMARK   62  A    between atoms: _142  and  _145
REMARK   63  A    between atoms: _145  and  _146
REMARK   64  A    between atoms: _148  and  _150
REMARK   65  A    between atoms: _150  and  _151
REMARK   66  A    between atoms: _153  and  _155
REMARK   67  A    between atoms: _155  and  _156
REMARK   68  A    between atoms: _155  and  _158
REMARK   69  A    between atoms: _158  and  _159
REMARK   70  A    between atoms: _162  and  _164
REMARK   71  A    between atoms: _164  and  _165
REMARK   72  A    between atoms: _164  and  _167
REMARK   73  A    between atoms: _167  and  _168
REMARK   74  A    between atoms: _171  and  _173
REMARK   75  A    between atoms: _173  and  _174
REMARK   76  A    between atoms: _173  and  _176
REMARK   77  A    between atoms: _176  and  _177
REMARK   78  A    between atoms: _180  and  _182
REMARK   79  A    between atoms: _182  and  _183
REMARK   80  A    between atoms: _185  and  _187
REMARK   81  A    between atoms: _187  and  _188
REMARK   82  A    between atoms: _190  and  _192
REMARK   83  A    between atoms: _192  and  _193
REMARK   84  A    between atoms: _192  and  _195
REMARK   85  A    between atoms: _195  and  _196
REMARK   86  A    between atoms: _198  and  _200
REMARK   87  A    between atoms: _200  and  _201
REMARK   88  A    between atoms: _200  and  _203
REMARK   89  A    between atoms: _203  and  _204
REMARK   90  A    between atoms: _207  and  _209
REMARK   91  A    between atoms: _209  and  _210
REMARK   92  A    between atoms: _209  and  _212
REMARK   93  A    between atoms: _212  and  _213
REMARK   94  A    between atoms: _213  and  _214
REMARK   95  A    between atoms: _214  and  _215
REMARK   96  A    between atoms: _224  and  _226
REMARK   97  A    between atoms: _226  and  _227
REMARK   98  A    between atoms: _226  and  _229
REMARK   99  A    between atoms: _229  and  _230
REMARK  100  A    between atoms: _236  and  _238
REMARK  101  A    between atoms: _238  and  _239
REMARK  102  A    between atoms: _238  and  _241
REMARK  103  A    between atoms: _241  and  _242
REMARK  104  A    between atoms: _242  and  _243
REMARK  105  A    between atoms: _243  and  _244
REMARK  106  A    between atoms: _244  and  _245
REMARK  107  A    between atoms: _249  and  _251
REMARK  108  A    between atoms: _251  and  _252
REMARK  109  A    between atoms: _254  and  _256
REMARK  110  A    between atoms: _256  and  _257
REMARK  111  A    between atoms: _256  and  _259
REMARK  112  A    between atoms: _259  and  _260
REMARK  113  A    between atoms: _263  and  _265
REMARK  114  A    between atoms: _265  and  _266
REMARK  115  A    between atoms: _265  and  _268
REMARK  116  A    between atoms: _268  and  _269
REMARK  117  A    between atoms: _269  and  _270
REMARK  118  A    between atoms: _270  and  _271
REMARK  119  A    between atoms: _271  and  _272
REMARK  120  A    between atoms: _276  and  _278
REMARK  121  A    between atoms: _278  and  _279
REMARK  122  A    between atoms: _281  and  _283
REMARK  123  A    between atoms: _283  and  _284
REMARK  124  A    between atoms: _283  and  _286
REMARK  125  A    between atoms: _288  and  _290
REMARK  126  A    between atoms: _290  and  _291
REMARK  127  A    between atoms: _290  and  _293
REMARK  128  A    between atoms: _296  and  _298
REMARK  129  A    between atoms: _298  and  _299
REMARK  130  A    between atoms: _298  and  _301
REMARK  131  A    between atoms: _301  and  _302
REMARK  132  A    between atoms: _307  and  _308
REMARK  133  A    between atoms: _310  and  _312
REMARK  134  A    between atoms: _312  and  _313
REMARK  135  A    between atoms: _312  and  _315
REMARK  136  A    between atoms: _315  and  _316
REMARK  137  A    between atoms: _316  and  _317
REMARK  138  A    between atoms: _322  and  _324
REMARK  139  A    between atoms: _324  and  _325
REMARK  140  A    between atoms: _324  and  _327
REMARK  141  A    between atoms: _327  and  _328
REMARK  142  A    between atoms: _331  and  _333
REMARK  143  A    between atoms: _333  and  _334
REMARK  144  A    between atoms: _333  and  _336
REMARK  145  A    between atoms: _336  and  _337
REMARK  146  A    between atoms: _339  and  _341
REMARK  147  A    between atoms: _341  and  _342
REMARK  148  A    between atoms: _341  and  _344
REMARK  149  A    between atoms: _344  and  _345
REMARK  150  A    between atoms: _348  and  _350
REMARK  151  A    between atoms: _350  and  _351
REMARK  152  A    between atoms: _350  and  _353
REMARK  153  A    between atoms: _353  and  _354
REMARK  154  A    between atoms: _357  and  _359
REMARK  155  A    between atoms: _359  and  _360
REMARK  156  A    between atoms: _359  and  _362
REMARK  157  A    between atoms: _362  and  _363
REMARK  158  A    between atoms: _363  and  _364
REMARK  159  A    between atoms: _367  and  _369
REMARK  160  A    between atoms: _369  and  _370
REMARK  161  A    between atoms: _369  and  _372
REMARK  162  A    between atoms: _372  and  _373
REMARK  163  A    between atoms: _375  and  _377
REMARK  164  A    between atoms: _377  and  _378
REMARK  165  A    between atoms: _377  and  _380
REMARK  166  A    between atoms: _380  and  _381
REMARK  167  A    between atoms: _384  and  _386
REMARK  168  A    between atoms: _386  and  _387
REMARK  169  A    between atoms: _389  and  _391
REMARK  170  A    between atoms: _391  and  _392
REMARK  171  A    between atoms: _391  and  _394
REMARK  172  A    between atoms: _394  and  _395
REMARK  173  A    between atoms: _398  and  _400
REMARK  174  A    between atoms: _400  and  _401
REMARK  175  A    between atoms: _400  and  _403
REMARK  176  A    between atoms: _403  and  _404
REMARK  177  A    between atoms: _410  and  _412
REMARK  178  A    between atoms: _412  and  _413
REMARK  179  A    between atoms: _412  and  _415
REMARK  180  A    between atoms: _415  and  _416
REMARK  181  A    between atoms: _422  and  _424
REMARK  182  A    between atoms: _424  and  _425
REMARK  183  A    between atoms: _424  and  _427
REMARK  184  A    between atoms: _427  and  _428
REMARK  185  A    between atoms: _431  and  _433
REMARK  186  A    between atoms: _433  and  _434
REMARK  187  A    between atoms: _433  and  _436
REMARK  188  A    between atoms: _436  and  _437
REMARK  189  A    between atoms: _440  and  _442
REMARK  190  A    between atoms: _442  and  _443
REMARK  191  A    between atoms: _442  and  _445
REMARK  192  A    between atoms: _445  and  _446
REMARK  193  A    between atoms: _452  and  _454
REMARK  194  A    between atoms: _454  and  _455
REMARK  195  A    between atoms: _454  and  _457
REMARK  196  A    between atoms: _457  and  _458
REMARK  197  A    between atoms: _463  and  _465
REMARK  198  A    between atoms: _465  and  _466
REMARK  199  A    between atoms: _465  and  _468
REMARK  200  A    between atoms: _468  and  _469
REMARK  201  A    between atoms: _469  and  _470
REMARK  202  A    between atoms: _473  and  _474
REMARK  203  A    between atoms: _479  and  _481
REMARK  204  A    between atoms: _481  and  _482
REMARK  205  A    between atoms: _484  and  _486
REMARK  206  A    between atoms: _486  and  _487
REMARK  207  A    between atoms: _490  and  _492
REMARK  208  A    between atoms: _492  and  _493
REMARK  209  A    between atoms: _492  and  _495
REMARK  210  A    between atoms: _495  and  _496
REMARK  211  A    between atoms: _499  and  _501
REMARK  212  A    between atoms: _501  and  _502
REMARK  213  A    between atoms: _504  and  _506
REMARK  214  A    between atoms: _506  and  _507
REMARK  215  A    between atoms: _510  and  _512
REMARK  216  A    between atoms: _512  and  _513
REMARK  217  A    between atoms: _512  and  _515
REMARK  218  A    between atoms: _518  and  _520
REMARK  219  A    between atoms: _520  and  _521
REMARK  220  A    between atoms: _520  and  _523
REMARK  221  A    between atoms: _523  and  _524
REMARK  222  A    between atoms: _527  and  _529
REMARK  223  A    between atoms: _529  and  _530
REMARK  224  A    between atoms: _529  and  _532
REMARK  225  A    between atoms: _532  and  _533
REMARK  226  A    between atoms: _533  and  _534
REMARK  227  A    between atoms: _536  and  _538
REMARK  228  A    between atoms: _538  and  _539
REMARK  229  A    between atoms: _538  and  _541
REMARK  230  A    between atoms: _541  and  _542
REMARK  231  A    between atoms: _547  and  _549
REMARK  232  A    between atoms: _549  and  _550
REMARK  233  A    between atoms: _549  and  _552
REMARK  234  A    between atoms: _552  and  _553
REMARK                            x       y       z     vdW  Elec       q    Type
REMARK                         _______ _______ _______ _____ _____    ______ ____
ROOT
ATOM      1  O   HOH     1      34.241 -42.013  15.372  0.00  0.00    +0.000 OA
ENDROOT
TORSDOF 0
REMARK  Name = ../refined-set-2016/3ppm/3ppm_pocket.pdb
REMARK  234 active torsions:
REMARK  status: ('A' for Active; 'I' for Inactive)
REMARK    1  A    between atoms: _1  and  _3
REMARK    2  A    between atoms: _3  and  _4
REMARK    3  A    between atoms: _3  and  _6
REMARK    4  A    between atoms: _6  and  _7
REMARK    5  A    between atoms: _7  and  _8
REMARK    6  A    between atoms: _8  and  _9
REMARK    7  A    between atoms: _9  and  _10
REMARK    8  A    between atoms: _14  and  _16
REMARK    9  A    between atoms: _16  and  _17
REMARK   10  A    between atoms: _16  and  _19
REMARK   11  A    between atoms: _19  and  _20
REMARK   12  A    between atoms: _20  and  _21
REMARK   13  A    between atoms: _24  and  _26
REMARK   14  A    between atoms: _26  and  _27
REMARK   15  A    between atoms: _26  and  _29
REMARK   16  A    between atoms: _31  and  _33
REMARK   17  A    between atoms: _33  and  _34
REMARK   18  A    between atoms: _33  and  _36
REMARK   19  A    between atoms: _36  and  _37
REMARK   20  A    between atoms: _43  and  _45
REMARK   21  A    between atoms: _45  and  _46
REMARK   22  A    between atoms: _45  and  _48
REMARK   23  A    between atoms: _48  and  _49
REMARK   24  A    between atoms: _52  and  _54
REMARK   25  A    between atoms: _54  and  _55
REMARK   26  A    between atoms: _54  and  _57
REMARK   27  A    between atoms: _61  and  _62
REMARK   28  A    between atoms: _67  and  _69
REMARK   29  A    between atoms: _69  and  _70
REMARK   30  A    between atoms: _69  and  _72
REMARK   31  A    between atoms: _72  and  _73
REMARK   32  A    between atoms: _75  and  _77
REMARK   33  A    between atoms: _77  and  _78
REMARK   34  A    between atoms: _77  and  _80
REMARK   35  A    between atoms: _80  and  _81
REMARK   36  A    between atoms: _81  and  _82
REMARK   37  A    between atoms: _84  and  _86
REMARK   38  A    between atoms: _86  and  _87
REMARK   39  A    between atoms: _86  and  _89
REMARK   40  A    between atoms: _89  and  _90
REMARK   41  A    between atoms: _96  and  _98
REMARK   42  A    between atoms: _98  and  _99
REMARK   43  A    between atoms: _98  and  _101
REMARK   44  A    between atoms: _101  and  _102
REMARK   45  A    between atoms: _104  and  _106
REMARK   46  A    between atoms: _106  and  _107
REMARK   47  A    between atoms: _106  and  _109
REMARK   48  A    between atoms: _109  and  _110
REMARK   49  A    between atoms: _115  and  _116
REMARK   50  A    between atoms: _118  and  _120
REMARK   51  A    between atoms: _120  and  _121
REMARK   52  A    between atoms: _120  and  _123
REMARK   53  A    between atoms: _123  and  _124
REMARK   54  A    between atoms: _127  and  _129
REMARK   55  A    between atoms: _129  and  _130
REMARK   56  A    between atoms: _132  and  _134
REMARK   57  A    between atoms: _134  and  _135
REMARK   58  A    between atoms: _134  and  _137
REMARK   59  A    between atoms: _137  and  _138
REMARK   60  A    between atoms: _140  and  _142
REMARK   61  A    between atoms: _142  and  _143
REMARK   62  A    between atoms: _142  and  _145
REMARK   63  A    between atoms: _145  and  _146
REMARK   64  A    between atoms: _148  and  _150
REMARK   65  A    between atoms: _150  and  _151
REMARK   66  A    between atoms: _153  and  _155
REMARK   67  A    between atoms: _155  and  _156
REMARK   68  A    between atoms: _155  and  _158
REMARK   69  A    between atoms: _158  and  _159
REMARK   70  A    between atoms: _162  and  _164
REMARK   71  A    between atoms: _164  and  _165
REMARK   72  A    between atoms: _164  and  _167
REMARK   73  A    between atoms: _167  and  _168
REMARK   74  A    between atoms: _171  and  _173
REMARK   75  A    between atoms: _173  and  _174
REMARK   76  A    between atoms: _173  and  _176
REMARK   77  A    between atoms: _176  and  _177
REMARK   78  A    between atoms: _180  and  _182
REMARK   79  A    between atoms: _182  and  _183
REMARK   80  A    between atoms: _185  and  _187
REMARK   81  A    between atoms: _187  and  _188
REMARK   82  A    between atoms: _190  and  _192
REMARK   83  A    between atoms: _192  and  _193
REMARK   84  A    between atoms: _192  and  _195
REMARK   85  A    between atoms: _195  and  _196
REMARK   86  A    between atoms: _198  and  _200
REMARK   87  A    between atoms: _200  and  _201
REMARK   88  A    between atoms: _200  and  _203
REMARK   89  A    between atoms: _203  and  _204
REMARK   90  A    between atoms: _207  and  _209
REMARK   91  A    between atoms: _209  and  _210
REMARK   92  A    between atoms: _209  and  _212
REMARK   93  A    between atoms: _212  and  _213
REMARK   94  A    between atoms: _213  and  _214
REMARK   95  A    between atoms: _214  and  _215
REMARK   96  A    between atoms: _224  and  _226
REMARK   97  A    between atoms: _226  and  _227
REMARK   98  A    between atoms: _226  and  _229
REMARK   99  A    between atoms: _229  and  _230
REMARK  100  A    between atoms: _236  and  _238
REMARK  101  A    between atoms: _238  and  _239
REMARK  102  A    between atoms: _238  and  _241
REMARK  103  A    between atoms: _241  and  _242
REMARK  104  A    between atoms: _242  and  _243
REMARK  105  A    between atoms: _243  and  _244
REMARK  106  A    between atoms: _244  and  _245
REMARK  107  A    between atoms: _249  and  _251
REMARK  108  A    between atoms: _251  and  _252
REMARK  109  A    between atoms: _254  and  _256
REMARK  110  A    between atoms: _256  and  _257
REMARK  111  A    between atoms: _256  and  _259
REMARK  112  A    between atoms: _259  and  _260
REMARK  113  A    between atoms: _263  and  _265
REMARK  114  A    between atoms: _265  and  _266
REMARK  115  A    between atoms: _265  and  _268
REMARK  116  A    between atoms: _268  and  _269
REMARK  117  A    between atoms: _269  and  _270
REMARK  118  A    between atoms: _270  and  _271
REMARK  119  A    between atoms: _271  and  _272
REMARK  120  A    between atoms: _276  and  _278
REMARK  121  A    between atoms: _278  and  _279
REMARK  122  A    between atoms: _281  and  _283
REMARK  123  A    between atoms: _283  and  _284
REMARK  124  A    between atoms: _283  and  _286
REMARK  125  A    between atoms: _288  and  _290
REMARK  126  A    between atoms: _290  and  _291
REMARK  127  A    between atoms: _290  and  _293
REMARK  128  A    between atoms: _296  and  _298
REMARK  129  A    between atoms: _298  and  _299
REMARK  130  A    between atoms: _298  and  _301
REMARK  131  A    between atoms: _301  and  _302
REMARK  132  A    between atoms: _307  and  _308
REMARK  133  A    between atoms: _310  and  _312
REMARK  134  A    between atoms: _312  and  _313
REMARK  135  A    between atoms: _312  and  _315
REMARK  136  A    between atoms: _315  and  _316
REMARK  137  A    between atoms: _316  and  _317
REMARK  138  A    between atoms: _322  and  _324
REMARK  139  A    between atoms: _324  and  _325
REMARK  140  A    between atoms: _324  and  _327
REMARK  141  A    between atoms: _327  and  _328
REMARK  142  A    between atoms: _331  and  _333
REMARK  143  A    between atoms: _333  and  _334
REMARK  144  A    between atoms: _333  and  _336
REMARK  145  A    between atoms: _336  and  _337
REMARK  146  A    between atoms: _339  and  _341
REMARK  147  A    between atoms: _341  and  _342
REMARK  148  A    between atoms: _341  and  _344
REMARK  149  A    between atoms: _344  and  _345
REMARK  150  A    between atoms: _348  and  _350
REMARK  151  A    between atoms: _350  and  _351
REMARK  152  A    between atoms: _350  and  _353
REMARK  153  A    between atoms: _353  and  _354
REMARK  154  A    between atoms: _357  and  _359
REMARK  155  A    between atoms: _359  and  _360
REMARK  156  A    between atoms: _359  and  _362
REMARK  157  A    between atoms: _362  and  _363
REMARK  158  A    between atoms: _363  and  _364
REMARK  159  A    between atoms: _367  and  _369
REMARK  160  A    between atoms: _369  and  _370
REMARK  161  A    between atoms: _369  and  _372
REMARK  162  A    between atoms: _372  and  _373
REMARK  163  A    between atoms: _375  and  _377
REMARK  164  A    between atoms: _377  and  _378
REMARK  165  A    between atoms: _377  and  _380
REMARK  166  A    between atoms: _380  and  _381
REMARK  167  A    between atoms: _384  and  _386
REMARK  168  A    between atoms: _386  and  _387
REMARK  169  A    between atoms: _389  and  _391
REMARK  170  A    between atoms: _391  and  _392
REMARK  171  A    between atoms: _391  and  _394
REMARK  172  A    between atoms: _394  and  _395
REMARK  173  A    between atoms: _398  and  _400
REMARK  174  A    between atoms: _400  and  _401
REMARK  175  A    between atoms: _400  and  _403
REMARK  176  A    between atoms: _403  and  _404
REMARK  177  A    between atoms: _410  and  _412
REMARK  178  A    between atoms: _412  and  _413
REMARK  179  A    between atoms: _412  and  _415
REMARK  180  A    between atoms: _415  and  _416
REMARK  181  A    between atoms: _422  and  _424
REMARK  182  A    between atoms: _424  and  _425
REMARK  183  A    between atoms: _424  and  _427
REMARK  184  A    between atoms: _427  and  _428
REMARK  185  A    between atoms: _431  and  _433
REMARK  186  A    between atoms: _433  and  _434
REMARK  187  A    between atoms: _433  and  _436
REMARK  188  A    between atoms: _436  and  _437
REMARK  189  A    between atoms: _440  and  _442
REMARK  190  A    between atoms: _442  and  _443
REMARK  191  A    between atoms: _442  and  _445
REMARK  192  A    between atoms: _445  and  _446
REMARK  193  A    between atoms: _452  and  _454
REMARK  194  A    between atoms: _454  and  _455
REMARK  195  A    between atoms: _454  and  _457
REMARK  196  A    between atoms: _457  and  _458
REMARK  197  A    between atoms: _463  and  _465
REMARK  198  A    between atoms: _465  and  _466
REMARK  199  A    between atoms: _465  and  _468
REMARK  200  A    between atoms: _468  and  _469
REMARK  201  A    between atoms: _469  and  _470
REMARK  202  A    between atoms: _473  and  _474
REMARK  203  A    between atoms: _479  and  _481
REMARK  204  A    between atoms: _481  and  _482
REMARK  205  A    between atoms: _484  and  _486
REMARK  206  A    between atoms: _486  and  _487
REMARK  207  A    between atoms: _490  and  _492
REMARK  208  A    between atoms: _492  and  _493
REMARK  209  A    between atoms: _492  and  _495
REMARK  210  A    between atoms: _495  and  _496
REMARK  211  A    between atoms: _499  and  _501
REMARK  212  A    between atoms: _501  and  _502
REMARK  213  A    between atoms: _504  and  _506
REMARK  214  A    between atoms: _506  and  _507
REMARK  215  A    between atoms: _510  and  _512
REMARK  216  A    between atoms: _512  and  _513
REMARK  217  A    between atoms: _512  and  _515
REMARK  218  A    between atoms: _518  and  _520
REMARK  219  A    between atoms: _520  and  _521
REMARK  220  A    between atoms: _520  and  _523
REMARK  221  A    between atoms: _523  and  _524
REMARK  222  A    between atoms: _527  and  _529
REMARK  223  A    between atoms: _529  and  _530
REMARK  224  A    between atoms: _529  and  _532
REMARK  225  A    between atoms: _532  and  _533
REMARK  226  A    between atoms: _533  and  _534
REMARK  227  A    between atoms: _536  and  _538
REMARK  228  A    between atoms: _538  and  _539
REMARK  229  A    between atoms: _538  and  _541
REMARK  230  A    between atoms: _541  and  _542
REMARK  231  A    between atoms: _547  and  _549
REMARK  232  A    between atoms: _549  and  _550
REMARK  233  A    between atoms: _549  and  _552
REMARK  234  A    between atoms: _552  and  _553
REMARK                            x       y       z     vdW  Elec       q    Type
REMARK                         _______ _______ _______ _____ _____    ______ ____
ROOT
ATOM      1  O   HOH     1      32.501 -39.973  16.063  0.00  0.00    +0.000 OA
ENDROOT
TORSDOF 0
REMARK  Name = ../refined-set-2016/3ppm/3ppm_pocket.pdb
REMARK  234 active torsions:
REMARK  status: ('A' for Active; 'I' for Inactive)
REMARK    1  A    between atoms: _1  and  _3
REMARK    2  A    between atoms: _3  and  _4
REMARK    3  A    between atoms: _3  and  _6
REMARK    4  A    between atoms: _6  and  _7
REMARK    5  A    between atoms: _7  and  _8
REMARK    6  A    between atoms: _8  and  _9
REMARK    7  A    between atoms: _9  and  _10
REMARK    8  A    between atoms: _14  and  _16
REMARK    9  A    between atoms: _16  and  _17
REMARK   10  A    between atoms: _16  and  _19
REMARK   11  A    between atoms: _19  and  _20
REMARK   12  A    between atoms: _20  and  _21
REMARK   13  A    between atoms: _24  and  _26
REMARK   14  A    between atoms: _26  and  _27
REMARK   15  A    between atoms: _26  and  _29
REMARK   16  A    between atoms: _31  and  _33
REMARK   17  A    between atoms: _33  and  _34
REMARK   18  A    between atoms: _33  and  _36
REMARK   19  A    between atoms: _36  and  _37
REMARK   20  A    between atoms: _43  and  _45
REMARK   21  A    between atoms: _45  and  _46
REMARK   22  A    between atoms: _45  and  _48
REMARK   23  A    between atoms: _48  and  _49
REMARK   24  A    between atoms: _52  and  _54
REMARK   25  A    between atoms: _54  and  _55
REMARK   26  A    between atoms: _54  and  _57
REMARK   27  A    between atoms: _61  and  _62
REMARK   28  A    between atoms: _67  and  _69
REMARK   29  A    between atoms: _69  and  _70
REMARK   30  A    between atoms: _69  and  _72
REMARK   31  A    between atoms: _72  and  _73
REMARK   32  A    between atoms: _75  and  _77
REMARK   33  A    between atoms: _77  and  _78
REMARK   34  A    between atoms: _77  and  _80
REMARK   35  A    between atoms: _80  and  _81
REMARK   36  A    between atoms: _81  and  _82
REMARK   37  A    between atoms: _84  and  _86
REMARK   38  A    between atoms: _86  and  _87
REMARK   39  A    between atoms: _86  and  _89
REMARK   40  A    between atoms: _89  and  _90
REMARK   41  A    between atoms: _96  and  _98
REMARK   42  A    between atoms: _98  and  _99
REMARK   43  A    between atoms: _98  and  _101
REMARK   44  A    between atoms: _101  and  _102
REMARK   45  A    between atoms: _104  and  _106
REMARK   46  A    between atoms: _106  and  _107
REMARK   47  A    between atoms: _106  and  _109
REMARK   48  A    between atoms: _109  and  _110
REMARK   49  A    between atoms: _115  and  _116
REMARK   50  A    between atoms: _118  and  _120
REMARK   51  A    between atoms: _120  and  _121
REMARK   52  A    between atoms: _120  and  _123
REMARK   53  A    between atoms: _123  and  _124
REMARK   54  A    between atoms: _127  and  _129
REMARK   55  A    between atoms: _129  and  _130
REMARK   56  A    between atoms: _132  and  _134
REMARK   57  A    between atoms: _134  and  _135
REMARK   58  A    between atoms: _134  and  _137
REMARK   59  A    between atoms: _137  and  _138
REMARK   60  A    between atoms: _140  and  _142
REMARK   61  A    between atoms: _142  and  _143
REMARK   62  A    between atoms: _142  and  _145
REMARK   63  A    between atoms: _145  and  _146
REMARK   64  A    between atoms: _148  and  _150
REMARK   65  A    between atoms: _150  and  _151
REMARK   66  A    between atoms: _153  and  _155
REMARK   67  A    between atoms: _155  and  _156
REMARK   68  A    between atoms: _155  and  _158
REMARK   69  A    between atoms: _158  and  _159
REMARK   70  A    between atoms: _162  and  _164
REMARK   71  A    between atoms: _164  and  _165
REMARK   72  A    between atoms: _164  and  _167
REMARK   73  A    between atoms: _167  and  _168
REMARK   74  A    between atoms: _171  and  _173
REMARK   75  A    between atoms: _173  and  _174
REMARK   76  A    between atoms: _173  and  _176
REMARK   77  A    between atoms: _176  and  _177
REMARK   78  A    between atoms: _180  and  _182
REMARK   79  A    between atoms: _182  and  _183
REMARK   80  A    between atoms: _185  and  _187
REMARK   81  A    between atoms: _187  and  _188
REMARK   82  A    between atoms: _190  and  _192
REMARK   83  A    between atoms: _192  and  _193
REMARK   84  A    between atoms: _192  and  _195
REMARK   85  A    between atoms: _195  and  _196
REMARK   86  A    between atoms: _198  and  _200
REMARK   87  A    between atoms: _200  and  _201
REMARK   88  A    between atoms: _200  and  _203
REMARK   89  A    between atoms: _203  and  _204
REMARK   90  A    between atoms: _207  and  _209
REMARK   91  A    between atoms: _209  and  _210
REMARK   92  A    between atoms: _209  and  _212
REMARK   93  A    between atoms: _212  and  _213
REMARK   94  A    between atoms: _213  and  _214
REMARK   95  A    between atoms: _214  and  _215
REMARK   96  A    between atoms: _224  and  _226
REMARK   97  A    between atoms: _226  and  _227
REMARK   98  A    between atoms: _226  and  _229
REMARK   99  A    between atoms: _229  and  _230
REMARK  100  A    between atoms: _236  and  _238
REMARK  101  A    between atoms: _238  and  _239
REMARK  102  A    between atoms: _238  and  _241
REMARK  103  A    between atoms: _241  and  _242
REMARK  104  A    between atoms: _242  and  _243
REMARK  105  A    between atoms: _243  and  _244
REMARK  106  A    between atoms: _244  and  _245
REMARK  107  A    between atoms: _249  and  _251
REMARK  108  A    between atoms: _251  and  _252
REMARK  109  A    between atoms: _254  and  _256
REMARK  110  A    between atoms: _256  and  _257
REMARK  111  A    between atoms: _256  and  _259
REMARK  112  A    between atoms: _259  and  _260
REMARK  113  A    between atoms: _263  and  _265
REMARK  114  A    between atoms: _265  and  _266
REMARK  115  A    between atoms: _265  and  _268
REMARK  116  A    between atoms: _268  and  _269
REMARK  117  A    between atoms: _269  and  _270
REMARK  118  A    between atoms: _270  and  _271
REMARK  119  A    between atoms: _271  and  _272
REMARK  120  A    between atoms: _276  and  _278
REMARK  121  A    between atoms: _278  and  _279
REMARK  122  A    between atoms: _281  and  _283
REMARK  123  A    between atoms: _283  and  _284
REMARK  124  A    between atoms: _283  and  _286
REMARK  125  A    between atoms: _288  and  _290
REMARK  126  A    between atoms: _290  and  _291
REMARK  127  A    between atoms: _290  and  _293
REMARK  128  A    between atoms: _296  and  _298
REMARK  129  A    between atoms: _298  and  _299
REMARK  130  A    between atoms: _298  and  _301
REMARK  131  A    between atoms: _301  and  _302
REMARK  132  A    between atoms: _307  and  _308
REMARK  133  A    between atoms: _310  and  _312
REMARK  134  A    between atoms: _312  and  _313
REMARK  135  A    between atoms: _312  and  _315
REMARK  136  A    between atoms: _315  and  _316
REMARK  137  A    between atoms: _316  and  _317
REMARK  138  A    between atoms: _322  and  _324
REMARK  139  A    between atoms: _324  and  _325
REMARK  140  A    between atoms: _324  and  _327
REMARK  141  A    between atoms: _327  and  _328
REMARK  142  A    between atoms: _331  and  _333
REMARK  143  A    between atoms: _333  and  _334
REMARK  144  A    between atoms: _333  and  _336
REMARK  145  A    between atoms: _336  and  _337
REMARK  146  A    between atoms: _339  and  _341
REMARK  147  A    between atoms: _341  and  _342
REMARK  148  A    between atoms: _341  and  _344
REMARK  149  A    between atoms: _344  and  _345
REMARK  150  A    between atoms: _348  and  _350
REMARK  151  A    between atoms: _350  and  _351
REMARK  152  A    between atoms: _350  and  _353
REMARK  153  A    between atoms: _353  and  _354
REMARK  154  A    between atoms: _357  and  _359
REMARK  155  A    between atoms: _359  and  _360
REMARK  156  A    between atoms: _359  and  _362
REMARK  157  A    between atoms: _362  and  _363
REMARK  158  A    between atoms: _363  and  _364
REMARK  159  A    between atoms: _367  and  _369
REMARK  160  A    between atoms: _369  and  _370
REMARK  161  A    between atoms: _369  and  _372
REMARK  162  A    between atoms: _372  and  _373
REMARK  163  A    between atoms: _375  and  _377
REMARK  164  A    between atoms: _377  and  _378
REMARK  165  A    between atoms: _377  and  _380
REMARK  166  A    between atoms: _380  and  _381
REMARK  167  A    between atoms: _384  and  _386
REMARK  168  A    between atoms: _386  and  _387
REMARK  169  A    between atoms: _389  and  _391
REMARK  170  A    between atoms: _391  and  _392
REMARK  171  A    between atoms: _391  and  _394
REMARK  172  A    between atoms: _394  and  _395
REMARK  173  A    between atoms: _398  and  _400
REMARK  174  A    between atoms: _400  and  _401
REMARK  175  A    between atoms: _400  and  _403
REMARK  176  A    between atoms: _403  and  _404
REMARK  177  A    between atoms: _410  and  _412
REMARK  178  A    between atoms: _412  and  _413
REMARK  179  A    between atoms: _412  and  _415
REMARK  180  A    between atoms: _415  and  _416
REMARK  181  A    between atoms: _422  and  _424
REMARK  182  A    between atoms: _424  and  _425
REMARK  183  A    between atoms: _424  and  _427
REMARK  184  A    between atoms: _427  and  _428
REMARK  185  A    between atoms: _431  and  _433
REMARK  186  A    between atoms: _433  and  _434
REMARK  187  A    between atoms: _433  and  _436
REMARK  188  A    between atoms: _436  and  _437
REMARK  189  A    between atoms: _440  and  _442
REMARK  190  A    between atoms: _442  and  _443
REMARK  191  A    between atoms: _442  and  _445
REMARK  192  A    between atoms: _445  and  _446
REMARK  193  A    between atoms: _452  and  _454
REMARK  194  A    between atoms: _454  and  _455
REMARK  195  A    between atoms: _454  and  _457
REMARK  196  A    between atoms: _457  and  _458
REMARK  197  A    between atoms: _463  and  _465
REMARK  198  A    between atoms: _465  and  _466
REMARK  199  A    between atoms: _465  and  _468
REMARK  200  A    between atoms: _468  and  _469
REMARK  201  A    between atoms: _469  and  _470
REMARK  202  A    between atoms: _473  and  _474
REMARK  203  A    between atoms: _479  and  _481
REMARK  204  A    between atoms: _481  and  _482
REMARK  205  A    between atoms: _484  and  _486
REMARK  206  A    between atoms: _486  and  _487
REMARK  207  A    between atoms: _490  and  _492
REMARK  208  A    between atoms: _492  and  _493
REMARK  209  A    between atoms: _492  and  _495
REMARK  210  A    between atoms: _495  and  _496
REMARK  211  A    between atoms: _499  and  _501
REMARK  212  A    between atoms: _501  and  _502
REMARK  213  A    between atoms: _504  and  _506
REMARK  214  A    between atoms: _506  and  _507
REMARK  215  A    between atoms: _510  and  _512
REMARK  216  A    between atoms: _512  and  _513
REMARK  217  A    between atoms: _512  and  _515
REMARK  218  A    between atoms: _518  and  _520
REMARK  219  A    between atoms: _520  and  _521
REMARK  220  A    between atoms: _520  and  _523
REMARK  221  A    between atoms: _523  and  _524
REMARK  222  A    between atoms: _527  and  _529
REMARK  223  A    between atoms: _529  and  _530
REMARK  224  A    between atoms: _529  and  _532
REMARK  225  A    between atoms: _532  and  _533
REMARK  226  A    between atoms: _533  and  _534
REMARK  227  A    between atoms: _536  and  _538
REMARK  228  A    between atoms: _538  and  _539
REMARK  229  A    between atoms: _538  and  _541
REMARK  230  A    between atoms: _541  and  _542
REMARK  231  A    between atoms: _547  and  _549
REMARK  232  A    between atoms: _549  and  _550
REMARK  233  A    between atoms: _549  and  _552
REMARK  234  A    between atoms: _552  and  _553
REMARK                            x       y       z     vdW  Elec       q    Type
REMARK                         _______ _______ _______ _____ _____    ______ ____
ROOT
ATOM      1  O   HOH     1      33.169 -43.137  11.063  0.00  0.00    +0.000 OA
ENDROOT
TORSDOF 0
REMARK  Name = ../refined-set-2016/3ppm/3ppm_pocket.pdb
REMARK  234 active torsions:
REMARK  status: ('A' for Active; 'I' for Inactive)
REMARK    1  A    between atoms: _1  and  _3
REMARK    2  A    between atoms: _3  and  _4
REMARK    3  A    between atoms: _3  and  _6
REMARK    4  A    between atoms: _6  and  _7
REMARK    5  A    between atoms: _7  and  _8
REMARK    6  A    between atoms: _8  and  _9
REMARK    7  A    between atoms: _9  and  _10
REMARK    8  A    between atoms: _14  and  _16
REMARK    9  A    between atoms: _16  and  _17
REMARK   10  A    between atoms: _16  and  _19
REMARK   11  A    between atoms: _19  and  _20
REMARK   12  A    between atoms: _20  and  _21
REMARK   13  A    between atoms: _24  and  _26
REMARK   14  A    between atoms: _26  and  _27
REMARK   15  A    between atoms: _26  and  _29
REMARK   16  A    between atoms: _31  and  _33
REMARK   17  A    between atoms: _33  and  _34
REMARK   18  A    between atoms: _33  and  _36
REMARK   19  A    between atoms: _36  and  _37
REMARK   20  A    between atoms: _43  and  _45
REMARK   21  A    between atoms: _45  and  _46
REMARK   22  A    between atoms: _45  and  _48
REMARK   23  A    between atoms: _48  and  _49
REMARK   24  A    between atoms: _52  and  _54
REMARK   25  A    between atoms: _54  and  _55
REMARK   26  A    between atoms: _54  and  _57
REMARK   27  A    between atoms: _61  and  _62
REMARK   28  A    between atoms: _67  and  _69
REMARK   29  A    between atoms: _69  and  _70
REMARK   30  A    between atoms: _69  and  _72
REMARK   31  A    between atoms: _72  and  _73
REMARK   32  A    between atoms: _75  and  _77
REMARK   33  A    between atoms: _77  and  _78
REMARK   34  A    between atoms: _77  and  _80
REMARK   35  A    between atoms: _80  and  _81
REMARK   36  A    between atoms: _81  and  _82
REMARK   37  A    between atoms: _84  and  _86
REMARK   38  A    between atoms: _86  and  _87
REMARK   39  A    between atoms: _86  and  _89
REMARK   40  A    between atoms: _89  and  _90
REMARK   41  A    between atoms: _96  and  _98
REMARK   42  A    between atoms: _98  and  _99
REMARK   43  A    between atoms: _98  and  _101
REMARK   44  A    between atoms: _101  and  _102
REMARK   45  A    between atoms: _104  and  _106
REMARK   46  A    between atoms: _106  and  _107
REMARK   47  A    between atoms: _106  and  _109
REMARK   48  A    between atoms: _109  and  _110
REMARK   49  A    between atoms: _115  and  _116
REMARK   50  A    between atoms: _118  and  _120
REMARK   51  A    between atoms: _120  and  _121
REMARK   52  A    between atoms: _120  and  _123
REMARK   53  A    between atoms: _123  and  _124
REMARK   54  A    between atoms: _127  and  _129
REMARK   55  A    between atoms: _129  and  _130
REMARK   56  A    between atoms: _132  and  _134
REMARK   57  A    between atoms: _134  and  _135
REMARK   58  A    between atoms: _134  and  _137
REMARK   59  A    between atoms: _137  and  _138
REMARK   60  A    between atoms: _140  and  _142
REMARK   61  A    between atoms: _142  and  _143
REMARK   62  A    between atoms: _142  and  _145
REMARK   63  A    between atoms: _145  and  _146
REMARK   64  A    between atoms: _148  and  _150
REMARK   65  A    between atoms: _150  and  _151
REMARK   66  A    between atoms: _153  and  _155
REMARK   67  A    between atoms: _155  and  _156
REMARK   68  A    between atoms: _155  and  _158
REMARK   69  A    between atoms: _158  and  _159
REMARK   70  A    between atoms: _162  and  _164
REMARK   71  A    between atoms: _164  and  _165
REMARK   72  A    between atoms: _164  and  _167
REMARK   73  A    between atoms: _167  and  _168
REMARK   74  A    between atoms: _171  and  _173
REMARK   75  A    between atoms: _173  and  _174
REMARK   76  A    between atoms: _173  and  _176
REMARK   77  A    between atoms: _176  and  _177
REMARK   78  A    between atoms: _180  and  _182
REMARK   79  A    between atoms: _182  and  _183
REMARK   80  A    between atoms: _185  and  _187
REMARK   81  A    between atoms: _187  and  _188
REMARK   82  A    between atoms: _190  and  _192
REMARK   83  A    between atoms: _192  and  _193
REMARK   84  A    between atoms: _192  and  _195
REMARK   85  A    between atoms: _195  and  _196
REMARK   86  A    between atoms: _198  and  _200
REMARK   87  A    between atoms: _200  and  _201
REMARK   88  A    between atoms: _200  and  _203
REMARK   89  A    between atoms: _203  and  _204
REMARK   90  A    between atoms: _207  and  _209
REMARK   91  A    between atoms: _209  and  _210
REMARK   92  A    between atoms: _209  and  _212
REMARK   93  A    between atoms: _212  and  _213
REMARK   94  A    between atoms: _213  and  _214
REMARK   95  A    between atoms: _214  and  _215
REMARK   96  A    between atoms: _224  and  _226
REMARK   97  A    between atoms: _226  and  _227
REMARK   98  A    between atoms: _226  and  _229
REMARK   99  A    between atoms: _229  and  _230
REMARK  100  A    between atoms: _236  and  _238
REMARK  101  A    between atoms: _238  and  _239
REMARK  102  A    between atoms: _238  and  _241
REMARK  103  A    between atoms: _241  and  _242
REMARK  104  A    between atoms: _242  and  _243
REMARK  105  A    between atoms: _243  and  _244
REMARK  106  A    between atoms: _244  and  _245
REMARK  107  A    between atoms: _249  and  _251
REMARK  108  A    between atoms: _251  and  _252
REMARK  109  A    between atoms: _254  and  _256
REMARK  110  A    between atoms: _256  and  _257
REMARK  111  A    between atoms: _256  and  _259
REMARK  112  A    between atoms: _259  and  _260
REMARK  113  A    between atoms: _263  and  _265
REMARK  114  A    between atoms: _265  and  _266
REMARK  115  A    between atoms: _265  and  _268
REMARK  116  A    between atoms: _268  and  _269
REMARK  117  A    between atoms: _269  and  _270
REMARK  118  A    between atoms: _270  and  _271
REMARK  119  A    between atoms: _271  and  _272
REMARK  120  A    between atoms: _276  and  _278
REMARK  121  A    between atoms: _278  and  _279
REMARK  122  A    between atoms: _281  and  _283
REMARK  123  A    between atoms: _283  and  _284
REMARK  124  A    between atoms: _283  and  _286
REMARK  125  A    between atoms: _288  and  _290
REMARK  126  A    between atoms: _290  and  _291
REMARK  127  A    between atoms: _290  and  _293
REMARK  128  A    between atoms: _296  and  _298
REMARK  129  A    between atoms: _298  and  _299
REMARK  130  A    between atoms: _298  and  _301
REMARK  131  A    between atoms: _301  and  _302
REMARK  132  A    between atoms: _307  and  _308
REMARK  133  A    between atoms: _310  and  _312
REMARK  134  A    between atoms: _312  and  _313
REMARK  135  A    between atoms: _312  and  _315
REMARK  136  A    between atoms: _315  and  _316
REMARK  137  A    between atoms: _316  and  _317
REMARK  138  A    between atoms: _322  and  _324
REMARK  139  A    between atoms: _324  and  _325
REMARK  140  A    between atoms: _324  and  _327
REMARK  141  A    between atoms: _327  and  _328
REMARK  142  A    between atoms: _331  and  _333
REMARK  143  A    between atoms: _333  and  _334
REMARK  144  A    between atoms: _333  and  _336
REMARK  145  A    between atoms: _336  and  _337
REMARK  146  A    between atoms: _339  and  _341
REMARK  147  A    between atoms: _341  and  _342
REMARK  148  A    between atoms: _341  and  _344
REMARK  149  A    between atoms: _344  and  _345
REMARK  150  A    between atoms: _348  and  _350
REMARK  151  A    between atoms: _350  and  _351
REMARK  152  A    between atoms: _350  and  _353
REMARK  153  A    between atoms: _353  and  _354
REMARK  154  A    between atoms: _357  and  _359
REMARK  155  A    between atoms: _359  and  _360
REMARK  156  A    between atoms: _359  and  _362
REMARK  157  A    between atoms: _362  and  _363
REMARK  158  A    between atoms: _363  and  _364
REMARK  159  A    between atoms: _367  and  _369
REMARK  160  A    between atoms: _369  and  _370
REMARK  161  A    between atoms: _369  and  _372
REMARK  162  A    between atoms: _372  and  _373
REMARK  163  A    between atoms: _375  and  _377
REMARK  164  A    between atoms: _377  and  _378
REMARK  165  A    between atoms: _377  and  _380
REMARK  166  A    between atoms: _380  and  _381
REMARK  167  A    between atoms: _384  and  _386
REMARK  168  A    between atoms: _386  and  _387
REMARK  169  A    between atoms: _389  and  _391
REMARK  170  A    between atoms: _391  and  _392
REMARK  171  A    between atoms: _391  and  _394
REMARK  172  A    between atoms: _394  and  _395
REMARK  173  A    between atoms: _398  and  _400
REMARK  174  A    between atoms: _400  and  _401
REMARK  175  A    between atoms: _400  and  _403
REMARK  176  A    between atoms: _403  and  _404
REMARK  177  A    between atoms: _410  and  _412
REMARK  178  A    between atoms: _412  and  _413
REMARK  179  A    between atoms: _412  and  _415
REMARK  180  A    between atoms: _415  and  _416
REMARK  181  A    between atoms: _422  and  _424
REMARK  182  A    between atoms: _424  and  _425
REMARK  183  A    between atoms: _424  and  _427
REMARK  184  A    between atoms: _427  and  _428
REMARK  185  A    between atoms: _431  and  _433
REMARK  186  A    between atoms: _433  and  _434
REMARK  187  A    between atoms: _433  and  _436
REMARK  188  A    between atoms: _436  and  _437
REMARK  189  A    between atoms: _440  and  _442
REMARK  190  A    between atoms: _442  and  _443
REMARK  191  A    between atoms: _442  and  _445
REMARK  192  A    between atoms: _445  and  _446
REMARK  193  A    between atoms: _452  and  _454
REMARK  194  A    between atoms: _454  and  _455
REMARK  195  A    between atoms: _454  and  _457
REMARK  196  A    between atoms: _457  and  _458
REMARK  197  A    between atoms: _463  and  _465
REMARK  198  A    between atoms: _465  and  _466
REMARK  199  A    between atoms: _465  and  _468
REMARK  200  A    between atoms: _468  and  _469
REMARK  201  A    between atoms: _469  and  _470
REMARK  202  A    between atoms: _473  and  _474
REMARK  203  A    between atoms: _479  and  _481
REMARK  204  A    between atoms: _481  and  _482
REMARK  205  A    between atoms: _484  and  _486
REMARK  206  A    between atoms: _486  and  _487
REMARK  207  A    between atoms: _490  and  _492
REMARK  208  A    between atoms: _492  and  _493
REMARK  209  A    between atoms: _492  and  _495
REMARK  210  A    between atoms: _495  and  _496
REMARK  211  A    between atoms: _499  and  _501
REMARK  212  A    between atoms: _501  and  _502
REMARK  213  A    between atoms: _504  and  _506
REMARK  214  A    between atoms: _506  and  _507
REMARK  215  A    between atoms: _510  and  _512
REMARK  216  A    between atoms: _512  and  _513
REMARK  217  A    between atoms: _512  and  _515
REMARK  218  A    between atoms: _518  and  _520
REMARK  219  A    between atoms: _520  and  _521
REMARK  220  A    between atoms: _520  and  _523
REMARK  221  A    between atoms: _523  and  _524
REMARK  222  A    between atoms: _527  and  _529
REMARK  223  A    between atoms: _529  and  _530
REMARK  224  A    between atoms: _529  and  _532
REMARK  225  A    between atoms: _532  and  _533
REMARK  226  A    between atoms: _533  and  _534
REMARK  227  A    between atoms: _536  and  _538
REMARK  228  A    between atoms: _538  and  _539
REMARK  229  A    between atoms: _538  and  _541
REMARK  230  A    between atoms: _541  and  _542
REMARK  231  A    between atoms: _547  and  _549
REMARK  232  A    between atoms: _549  and  _550
REMARK  233  A    between atoms: _549  and  _552
REMARK  234  A    between atoms: _552  and  _553
REMARK                            x       y       z     vdW  Elec       q    Type
REMARK                         _______ _______ _______ _____ _____    ______ ____
ROOT
ATOM      1  O   HOH     1      32.716 -44.533   8.817  0.00  0.00    +0.000 OA
ENDROOT
TORSDOF 0
REMARK  Name = ../refined-set-2016/3ppm/3ppm_pocket.pdb
REMARK  234 active torsions:
REMARK  status: ('A' for Active; 'I' for Inactive)
REMARK    1  A    between atoms: _1  and  _3
REMARK    2  A    between atoms: _3  and  _4
REMARK    3  A    between atoms: _3  and  _6
REMARK    4  A    between atoms: _6  and  _7
REMARK    5  A    between atoms: _7  and  _8
REMARK    6  A    between atoms: _8  and  _9
REMARK    7  A    between atoms: _9  and  _10
REMARK    8  A    between atoms: _14  and  _16
REMARK    9  A    between atoms: _16  and  _17
REMARK   10  A    between atoms: _16  and  _19
REMARK   11  A    between atoms: _19  and  _20
REMARK   12  A    between atoms: _20  and  _21
REMARK   13  A    between atoms: _24  and  _26
REMARK   14  A    between atoms: _26  and  _27
REMARK   15  A    between atoms: _26  and  _29
REMARK   16  A    between atoms: _31  and  _33
REMARK   17  A    between atoms: _33  and  _34
REMARK   18  A    between atoms: _33  and  _36
REMARK   19  A    between atoms: _36  and  _37
REMARK   20  A    between atoms: _43  and  _45
REMARK   21  A    between atoms: _45  and  _46
REMARK   22  A    between atoms: _45  and  _48
REMARK   23  A    between atoms: _48  and  _49
REMARK   24  A    between atoms: _52  and  _54
REMARK   25  A    between atoms: _54  and  _55
REMARK   26  A    between atoms: _54  and  _57
REMARK   27  A    between atoms: _61  and  _62
REMARK   28  A    between atoms: _67  and  _69
REMARK   29  A    between atoms: _69  and  _70
REMARK   30  A    between atoms: _69  and  _72
REMARK   31  A    between atoms: _72  and  _73
REMARK   32  A    between atoms: _75  and  _77
REMARK   33  A    between atoms: _77  and  _78
REMARK   34  A    between atoms: _77  and  _80
REMARK   35  A    between atoms: _80  and  _81
REMARK   36  A    between atoms: _81  and  _82
REMARK   37  A    between atoms: _84  and  _86
REMARK   38  A    between atoms: _86  and  _87
REMARK   39  A    between atoms: _86  and  _89
REMARK   40  A    between atoms: _89  and  _90
REMARK   41  A    between atoms: _96  and  _98
REMARK   42  A    between atoms: _98  and  _99
REMARK   43  A    between atoms: _98  and  _101
REMARK   44  A    between atoms: _101  and  _102
REMARK   45  A    between atoms: _104  and  _106
REMARK   46  A    between atoms: _106  and  _107
REMARK   47  A    between atoms: _106  and  _109
REMARK   48  A    between atoms: _109  and  _110
REMARK   49  A    between atoms: _115  and  _116
REMARK   50  A    between atoms: _118  and  _120
REMARK   51  A    between atoms: _120  and  _121
REMARK   52  A    between atoms: _120  and  _123
REMARK   53  A    between atoms: _123  and  _124
REMARK   54  A    between atoms: _127  and  _129
REMARK   55  A    between atoms: _129  and  _130
REMARK   56  A    between atoms: _132  and  _134
REMARK   57  A    between atoms: _134  and  _135
REMARK   58  A    between atoms: _134  and  _137
REMARK   59  A    between atoms: _137  and  _138
REMARK   60  A    between atoms: _140  and  _142
REMARK   61  A    between atoms: _142  and  _143
REMARK   62  A    between atoms: _142  and  _145
REMARK   63  A    between atoms: _145  and  _146
REMARK   64  A    between atoms: _148  and  _150
REMARK   65  A    between atoms: _150  and  _151
REMARK   66  A    between atoms: _153  and  _155
REMARK   67  A    between atoms: _155  and  _156
REMARK   68  A    between atoms: _155  and  _158
REMARK   69  A    between atoms: _158  and  _159
REMARK   70  A    between atoms: _162  and  _164
REMARK   71  A    between atoms: _164  and  _165
REMARK   72  A    between atoms: _164  and  _167
REMARK   73  A    between atoms: _167  and  _168
REMARK   74  A    between atoms: _171  and  _173
REMARK   75  A    between atoms: _173  and  _174
REMARK   76  A    between atoms: _173  and  _176
REMARK   77  A    between atoms: _176  and  _177
REMARK   78  A    between atoms: _180  and  _182
REMARK   79  A    between atoms: _182  and  _183
REMARK   80  A    between atoms: _185  and  _187
REMARK   81  A    between atoms: _187  and  _188
REMARK   82  A    between atoms: _190  and  _192
REMARK   83  A    between atoms: _192  and  _193
REMARK   84  A    between atoms: _192  and  _195
REMARK   85  A    between atoms: _195  and  _196
REMARK   86  A    between atoms: _198  and  _200
REMARK   87  A    between atoms: _200  and  _201
REMARK   88  A    between atoms: _200  and  _203
REMARK   89  A    between atoms: _203  and  _204
REMARK   90  A    between atoms: _207  and  _209
REMARK   91  A    between atoms: _209  and  _210
REMARK   92  A    between atoms: _209  and  _212
REMARK   93  A    between atoms: _212  and  _213
REMARK   94  A    between atoms: _213  and  _214
REMARK   95  A    between atoms: _214  and  _215
REMARK   96  A    between atoms: _224  and  _226
REMARK   97  A    between atoms: _226  and  _227
REMARK   98  A    between atoms: _226  and  _229
REMARK   99  A    between atoms: _229  and  _230
REMARK  100  A    between atoms: _236  and  _238
REMARK  101  A    between atoms: _238  and  _239
REMARK  102  A    between atoms: _238  and  _241
REMARK  103  A    between atoms: _241  and  _242
REMARK  104  A    between atoms: _242  and  _243
REMARK  105  A    between atoms: _243  and  _244
REMARK  106  A    between atoms: _244  and  _245
REMARK  107  A    between atoms: _249  and  _251
REMARK  108  A    between atoms: _251  and  _252
REMARK  109  A    between atoms: _254  and  _256
REMARK  110  A    between atoms: _256  and  _257
REMARK  111  A    between atoms: _256  and  _259
REMARK  112  A    between atoms: _259  and  _260
REMARK  113  A    between atoms: _263  and  _265
REMARK  114  A    between atoms: _265  and  _266
REMARK  115  A    between atoms: _265  and  _268
REMARK  116  A    between atoms: _268  and  _269
REMARK  117  A    between atoms: _269  and  _270
REMARK  118  A    between atoms: _270  and  _271
REMARK  119  A    between atoms: _271  and  _272
REMARK  120  A    between atoms: _276  and  _278
REMARK  121  A    between atoms: _278  and  _279
REMARK  122  A    between atoms: _281  and  _283
REMARK  123  A    between atoms: _283  and  _284
REMARK  124  A    between atoms: _283  and  _286
REMARK  125  A    between atoms: _288  and  _290
REMARK  126  A    between atoms: _290  and  _291
REMARK  127  A    between atoms: _290  and  _293
REMARK  128  A    between atoms: _296  and  _298
REMARK  129  A    between atoms: _298  and  _299
REMARK  130  A    between atoms: _298  and  _301
REMARK  131  A    between atoms: _301  and  _302
REMARK  132  A    between atoms: _307  and  _308
REMARK  133  A    between atoms: _310  and  _312
REMARK  134  A    between atoms: _312  and  _313
REMARK  135  A    between atoms: _312  and  _315
REMARK  136  A    between atoms: _315  and  _316
REMARK  137  A    between atoms: _316  and  _317
REMARK  138  A    between atoms: _322  and  _324
REMARK  139  A    between atoms: _324  and  _325
REMARK  140  A    between atoms: _324  and  _327
REMARK  141  A    between atoms: _327  and  _328
REMARK  142  A    between atoms: _331  and  _333
REMARK  143  A    between atoms: _333  and  _334
REMARK  144  A    between atoms: _333  and  _336
REMARK  145  A    between atoms: _336  and  _337
REMARK  146  A    between atoms: _339  and  _341
REMARK  147  A    between atoms: _341  and  _342
REMARK  148  A    between atoms: _341  and  _344
REMARK  149  A    between atoms: _344  and  _345
REMARK  150  A    between atoms: _348  and  _350
REMARK  151  A    between atoms: _350  and  _351
REMARK  152  A    between atoms: _350  and  _353
REMARK  153  A    between atoms: _353  and  _354
REMARK  154  A    between atoms: _357  and  _359
REMARK  155  A    between atoms: _359  and  _360
REMARK  156  A    between atoms: _359  and  _362
REMARK  157  A    between atoms: _362  and  _363
REMARK  158  A    between atoms: _363  and  _364
REMARK  159  A    between atoms: _367  and  _369
REMARK  160  A    between atoms: _369  and  _370
REMARK  161  A    between atoms: _369  and  _372
REMARK  162  A    between atoms: _372  and  _373
REMARK  163  A    between atoms: _375  and  _377
REMARK  164  A    between atoms: _377  and  _378
REMARK  165  A    between atoms: _377  and  _380
REMARK  166  A    between atoms: _380  and  _381
REMARK  167  A    between atoms: _384  and  _386
REMARK  168  A    between atoms: _386  and  _387
REMARK  169  A    between atoms: _389  and  _391
REMARK  170  A    between atoms: _391  and  _392
REMARK  171  A    between atoms: _391  and  _394
REMARK  172  A    between atoms: _394  and  _395
REMARK  173  A    between atoms: _398  and  _400
REMARK  174  A    between atoms: _400  and  _401
REMARK  175  A    between atoms: _400  and  _403
REMARK  176  A    between atoms: _403  and  _404
REMARK  177  A    between atoms: _410  and  _412
REMARK  178  A    between atoms: _412  and  _413
REMARK  179  A    between atoms: _412  and  _415
REMARK  180  A    between atoms: _415  and  _416
REMARK  181  A    between atoms: _422  and  _424
REMARK  182  A    between atoms: _424  and  _425
REMARK  183  A    between atoms: _424  and  _427
REMARK  184  A    between atoms: _427  and  _428
REMARK  185  A    between atoms: _431  and  _433
REMARK  186  A    between atoms: _433  and  _434
REMARK  187  A    between atoms: _433  and  _436
REMARK  188  A    between atoms: _436  and  _437
REMARK  189  A    between atoms: _440  and  _442
REMARK  190  A    between atoms: _442  and  _443
REMARK  191  A    between atoms: _442  and  _445
REMARK  192  A    between atoms: _445  and  _446
REMARK  193  A    between atoms: _452  and  _454
REMARK  194  A    between atoms: _454  and  _455
REMARK  195  A    between atoms: _454  and  _457
REMARK  196  A    between atoms: _457  and  _458
REMARK  197  A    between atoms: _463  and  _465
REMARK  198  A    between atoms: _465  and  _466
REMARK  199  A    between atoms: _465  and  _468
REMARK  200  A    between atoms: _468  and  _469
REMARK  201  A    between atoms: _469  and  _470
REMARK  202  A    between atoms: _473  and  _474
REMARK  203  A    between atoms: _479  and  _481
REMARK  204  A    between atoms: _481  and  _482
REMARK  205  A    between atoms: _484  and  _486
REMARK  206  A    between atoms: _486  and  _487
REMARK  207  A    between atoms: _490  and  _492
REMARK  208  A    between atoms: _492  and  _493
REMARK  209  A    between atoms: _492  and  _495
REMARK  210  A    between atoms: _495  and  _496
REMARK  211  A    between atoms: _499  and  _501
REMARK  212  A    between atoms: _501  and  _502
REMARK  213  A    between atoms: _504  and  _506
REMARK  214  A    between atoms: _506  and  _507
REMARK  215  A    between atoms: _510  and  _512
REMARK  216  A    between atoms: _512  and  _513
REMARK  217  A    between atoms: _512  and  _515
REMARK  218  A    between atoms: _518  and  _520
REMARK  219  A    between atoms: _520  and  _521
REMARK  220  A    between atoms: _520  and  _523
REMARK  221  A    between atoms: _523  and  _524
REMARK  222  A    between atoms: _527  and  _529
REMARK  223  A    between atoms: _529  and  _530
REMARK  224  A    between atoms: _529  and  _532
REMARK  225  A    between atoms: _532  and  _533
REMARK  226  A    between atoms: _533  and  _534
REMARK  227  A    between atoms: _536  and  _538
REMARK  228  A    between atoms: _538  and  _539
REMARK  229  A    between atoms: _538  and  _541
REMARK  230  A    between atoms: _541  and  _542
REMARK  231  A    between atoms: _547  and  _549
REMARK  232  A    between atoms: _549  and  _550
REMARK  233  A    between atoms: _549  and  _552
REMARK  234  A    between atoms: _552  and  _553
REMARK                            x       y       z     vdW  Elec       q    Type
REMARK                         _______ _______ _______ _____ _____    ______ ____
ROOT
ATOM      1  O   HOH     1      33.904 -43.956  13.270  0.00  0.00    +0.000 OA
ENDROOT
TORSDOF 0
REMARK  Name = ../refined-set-2016/3ppm/3ppm_pocket.pdb
REMARK  234 active torsions:
REMARK  status: ('A' for Active; 'I' for Inactive)
REMARK    1  A    between atoms: _1  and  _3
REMARK    2  A    between atoms: _3  and  _4
REMARK    3  A    between atoms: _3  and  _6
REMARK    4  A    between atoms: _6  and  _7
REMARK    5  A    between atoms: _7  and  _8
REMARK    6  A    between atoms: _8  and  _9
REMARK    7  A    between atoms: _9  and  _10
REMARK    8  A    between atoms: _14  and  _16
REMARK    9  A    between atoms: _16  and  _17
REMARK   10  A    between atoms: _16  and  _19
REMARK   11  A    between atoms: _19  and  _20
REMARK   12  A    between atoms: _20  and  _21
REMARK   13  A    between atoms: _24  and  _26
REMARK   14  A    between atoms: _26  and  _27
REMARK   15  A    between atoms: _26  and  _29
REMARK   16  A    between atoms: _31  and  _33
REMARK   17  A    between atoms: _33  and  _34
REMARK   18  A    between atoms: _33  and  _36
REMARK   19  A    between atoms: _36  and  _37
REMARK   20  A    between atoms: _43  and  _45
REMARK   21  A    between atoms: _45  and  _46
REMARK   22  A    between atoms: _45  and  _48
REMARK   23  A    between atoms: _48  and  _49
REMARK   24  A    between atoms: _52  and  _54
REMARK   25  A    between atoms: _54  and  _55
REMARK   26  A    between atoms: _54  and  _57
REMARK   27  A    between atoms: _61  and  _62
REMARK   28  A    between atoms: _67  and  _69
REMARK   29  A    between atoms: _69  and  _70
REMARK   30  A    between atoms: _69  and  _72
REMARK   31  A    between atoms: _72  and  _73
REMARK   32  A    between atoms: _75  and  _77
REMARK   33  A    between atoms: _77  and  _78
REMARK   34  A    between atoms: _77  and  _80
REMARK   35  A    between atoms: _80  and  _81
REMARK   36  A    between atoms: _81  and  _82
REMARK   37  A    between atoms: _84  and  _86
REMARK   38  A    between atoms: _86  and  _87
REMARK   39  A    between atoms: _86  and  _89
REMARK   40  A    between atoms: _89  and  _90
REMARK   41  A    between atoms: _96  and  _98
REMARK   42  A    between atoms: _98  and  _99
REMARK   43  A    between atoms: _98  and  _101
REMARK   44  A    between atoms: _101  and  _102
REMARK   45  A    between atoms: _104  and  _106
REMARK   46  A    between atoms: _106  and  _107
REMARK   47  A    between atoms: _106  and  _109
REMARK   48  A    between atoms: _109  and  _110
REMARK   49  A    between atoms: _115  and  _116
REMARK   50  A    between atoms: _118  and  _120
REMARK   51  A    between atoms: _120  and  _121
REMARK   52  A    between atoms: _120  and  _123
REMARK   53  A    between atoms: _123  and  _124
REMARK   54  A    between atoms: _127  and  _129
REMARK   55  A    between atoms: _129  and  _130
REMARK   56  A    between atoms: _132  and  _134
REMARK   57  A    between atoms: _134  and  _135
REMARK   58  A    between atoms: _134  and  _137
REMARK   59  A    between atoms: _137  and  _138
REMARK   60  A    between atoms: _140  and  _142
REMARK   61  A    between atoms: _142  and  _143
REMARK   62  A    between atoms: _142  and  _145
REMARK   63  A    between atoms: _145  and  _146
REMARK   64  A    between atoms: _148  and  _150
REMARK   65  A    between atoms: _150  and  _151
REMARK   66  A    between atoms: _153  and  _155
REMARK   67  A    between atoms: _155  and  _156
REMARK   68  A    between atoms: _155  and  _158
REMARK   69  A    between atoms: _158  and  _159
REMARK   70  A    between atoms: _162  and  _164
REMARK   71  A    between atoms: _164  and  _165
REMARK   72  A    between atoms: _164  and  _167
REMARK   73  A    between atoms: _167  and  _168
REMARK   74  A    between atoms: _171  and  _173
REMARK   75  A    between atoms: _173  and  _174
REMARK   76  A    between atoms: _173  and  _176
REMARK   77  A    between atoms: _176  and  _177
REMARK   78  A    between atoms: _180  and  _182
REMARK   79  A    between atoms: _182  and  _183
REMARK   80  A    between atoms: _185  and  _187
REMARK   81  A    between atoms: _187  and  _188
REMARK   82  A    between atoms: _190  and  _192
REMARK   83  A    between atoms: _192  and  _193
REMARK   84  A    between atoms: _192  and  _195
REMARK   85  A    between atoms: _195  and  _196
REMARK   86  A    between atoms: _198  and  _200
REMARK   87  A    between atoms: _200  and  _201
REMARK   88  A    between atoms: _200  and  _203
REMARK   89  A    between atoms: _203  and  _204
REMARK   90  A    between atoms: _207  and  _209
REMARK   91  A    between atoms: _209  and  _210
REMARK   92  A    between atoms: _209  and  _212
REMARK   93  A    between atoms: _212  and  _213
REMARK   94  A    between atoms: _213  and  _214
REMARK   95  A    between atoms: _214  and  _215
REMARK   96  A    between atoms: _224  and  _226
REMARK   97  A    between atoms: _226  and  _227
REMARK   98  A    between atoms: _226  and  _229
REMARK   99  A    between atoms: _229  and  _230
REMARK  100  A    between atoms: _236  and  _238
REMARK  101  A    between atoms: _238  and  _239
REMARK  102  A    between atoms: _238  and  _241
REMARK  103  A    between atoms: _241  and  _242
REMARK  104  A    between atoms: _242  and  _243
REMARK  105  A    between atoms: _243  and  _244
REMARK  106  A    between atoms: _244  and  _245
REMARK  107  A    between atoms: _249  and  _251
REMARK  108  A    between atoms: _251  and  _252
REMARK  109  A    between atoms: _254  and  _256
REMARK  110  A    between atoms: _256  and  _257
REMARK  111  A    between atoms: _256  and  _259
REMARK  112  A    between atoms: _259  and  _260
REMARK  113  A    between atoms: _263  and  _265
REMARK  114  A    between atoms: _265  and  _266
REMARK  115  A    between atoms: _265  and  _268
REMARK  116  A    between atoms: _268  and  _269
REMARK  117  A    between atoms: _269  and  _270
REMARK  118  A    between atoms: _270  and  _271
REMARK  119  A    between atoms: _271  and  _272
REMARK  120  A    between atoms: _276  and  _278
REMARK  121  A    between atoms: _278  and  _279
REMARK  122  A    between atoms: _281  and  _283
REMARK  123  A    between atoms: _283  and  _284
REMARK  124  A    between atoms: _283  and  _286
REMARK  125  A    between atoms: _288  and  _290
REMARK  126  A    between atoms: _290  and  _291
REMARK  127  A    between atoms: _290  and  _293
REMARK  128  A    between atoms: _296  and  _298
REMARK  129  A    between atoms: _298  and  _299
REMARK  130  A    between atoms: _298  and  _301
REMARK  131  A    between atoms: _301  and  _302
REMARK  132  A    between atoms: _307  and  _308
REMARK  133  A    between atoms: _310  and  _312
REMARK  134  A    between atoms: _312  and  _313
REMARK  135  A    between atoms: _312  and  _315
REMARK  136  A    between atoms: _315  and  _316
REMARK  137  A    between atoms: _316  and  _317
REMARK  138  A    between atoms: _322  and  _324
REMARK  139  A    between atoms: _324  and  _325
REMARK  140  A    between atoms: _324  and  _327
REMARK  141  A    between atoms: _327  and  _328
REMARK  142  A    between atoms: _331  and  _333
REMARK  143  A    between atoms: _333  and  _334
REMARK  144  A    between atoms: _333  and  _336
REMARK  145  A    between atoms: _336  and  _337
REMARK  146  A    between atoms: _339  and  _341
REMARK  147  A    between atoms: _341  and  _342
REMARK  148  A    between atoms: _341  and  _344
REMARK  149  A    between atoms: _344  and  _345
REMARK  150  A    between atoms: _348  and  _350
REMARK  151  A    between atoms: _350  and  _351
REMARK  152  A    between atoms: _350  and  _353
REMARK  153  A    between atoms: _353  and  _354
REMARK  154  A    between atoms: _357  and  _359
REMARK  155  A    between atoms: _359  and  _360
REMARK  156  A    between atoms: _359  and  _362
REMARK  157  A    between atoms: _362  and  _363
REMARK  158  A    between atoms: _363  and  _364
REMARK  159  A    between atoms: _367  and  _369
REMARK  160  A    between atoms: _369  and  _370
REMARK  161  A    between atoms: _369  and  _372
REMARK  162  A    between atoms: _372  and  _373
REMARK  163  A    between atoms: _375  and  _377
REMARK  164  A    between atoms: _377  and  _378
REMARK  165  A    between atoms: _377  and  _380
REMARK  166  A    between atoms: _380  and  _381
REMARK  167  A    between atoms: _384  and  _386
REMARK  168  A    between atoms: _386  and  _387
REMARK  169  A    between atoms: _389  and  _391
REMARK  170  A    between atoms: _391  and  _392
REMARK  171  A    between atoms: _391  and  _394
REMARK  172  A    between atoms: _394  and  _395
REMARK  173  A    between atoms: _398  and  _400
REMARK  174  A    between atoms: _400  and  _401
REMARK  175  A    between atoms: _400  and  _403
REMARK  176  A    between atoms: _403  and  _404
REMARK  177  A    between atoms: _410  and  _412
REMARK  178  A    between atoms: _412  and  _413
REMARK  179  A    between atoms: _412  and  _415
REMARK  180  A    between atoms: _415  and  _416
REMARK  181  A    between atoms: _422  and  _424
REMARK  182  A    between atoms: _424  and  _425
REMARK  183  A    between atoms: _424  and  _427
REMARK  184  A    between atoms: _427  and  _428
REMARK  185  A    between atoms: _431  and  _433
REMARK  186  A    between atoms: _433  and  _434
REMARK  187  A    between atoms: _433  and  _436
REMARK  188  A    between atoms: _436  and  _437
REMARK  189  A    between atoms: _440  and  _442
REMARK  190  A    between atoms: _442  and  _443
REMARK  191  A    between atoms: _442  and  _445
REMARK  192  A    between atoms: _445  and  _446
REMARK  193  A    between atoms: _452  and  _454
REMARK  194  A    between atoms: _454  and  _455
REMARK  195  A    between atoms: _454  and  _457
REMARK  196  A    between atoms: _457  and  _458
REMARK  197  A    between atoms: _463  and  _465
REMARK  198  A    between atoms: _465  and  _466
REMARK  199  A    between atoms: _465  and  _468
REMARK  200  A    between atoms: _468  and  _469
REMARK  201  A    between atoms: _469  and  _470
REMARK  202  A    between atoms: _473  and  _474
REMARK  203  A    between atoms: _479  and  _481
REMARK  204  A    between atoms: _481  and  _482
REMARK  205  A    between atoms: _484  and  _486
REMARK  206  A    between atoms: _486  and  _487
REMARK  207  A    between atoms: _490  and  _492
REMARK  208  A    between atoms: _492  and  _493
REMARK  209  A    between atoms: _492  and  _495
REMARK  210  A    between atoms: _495  and  _496
REMARK  211  A    between atoms: _499  and  _501
REMARK  212  A    between atoms: _501  and  _502
REMARK  213  A    between atoms: _504  and  _506
REMARK  214  A    between atoms: _506  and  _507
REMARK  215  A    between atoms: _510  and  _512
REMARK  216  A    between atoms: _512  and  _513
REMARK  217  A    between atoms: _512  and  _515
REMARK  218  A    between atoms: _518  and  _520
REMARK  219  A    between atoms: _520  and  _521
REMARK  220  A    between atoms: _520  and  _523
REMARK  221  A    between atoms: _523  and  _524
REMARK  222  A    between atoms: _527  and  _529
REMARK  223  A    between atoms: _529  and  _530
REMARK  224  A    between atoms: _529  and  _532
REMARK  225  A    between atoms: _532  and  _533
REMARK  226  A    between atoms: _533  and  _534
REMARK  227  A    between atoms: _536  and  _538
REMARK  228  A    between atoms: _538  and  _539
REMARK  229  A    between atoms: _538  and  _541
REMARK  230  A    between atoms: _541  and  _542
REMARK  231  A    between atoms: _547  and  _549
REMARK  232  A    between atoms: _549  and  _550
REMARK  233  A    between atoms: _549  and  _552
REMARK  234  A    between atoms: _552  and  _553
REMARK                            x       y       z     vdW  Elec       q    Type
REMARK                         _______ _______ _______ _____ _____    ______ ____
ROOT
ATOM      1  O   HOH     1      35.146 -44.341   6.850  0.00  0.00    +0.000 OA
ENDROOT
TORSDOF 0
