REMARK  Name = ../refined-set-2016/3f6e/3f6e_pocket.pdb
REMARK  293 active torsions:
REMARK  status: ('A' for Active; 'I' for Inactive)
REMARK    1  A    between atoms: _1  and  _3
REMARK    2  A    between atoms: _3  and  _4
REMARK    3  A    between atoms: _3  and  _6
REMARK    4  A    between atoms: _6  and  _7
REMARK    5  A    between atoms: _13  and  _14
REMARK    6  A    between atoms: _19  and  _21
REMARK    7  A    between atoms: _21  and  _22
REMARK    8  A    between atoms: _24  and  _26
REMARK    9  A    between atoms: _26  and  _27
REMARK   10  A    between atoms: _26  and  _29
REMARK   11  A    between atoms: _29  and  _30
REMARK   12  A    between atoms: _32  and  _34
REMARK   13  A    between atoms: _34  and  _35
REMARK   14  A    between atoms: _34  and  _37
REMARK   15  A    between atoms: _37  and  _38
REMARK   16  A    between atoms: _43  and  _45
REMARK   17  A    between atoms: _45  and  _46
REMARK   18  A    between atoms: _45  and  _48
REMARK   19  A    between atoms: _48  and  _49
REMARK   20  A    between atoms: _49  and  _50
REMARK   21  A    between atoms: _53  and  _55
REMARK   22  A    between atoms: _55  and  _56
REMARK   23  A    between atoms: _55  and  _58
REMARK   24  A    between atoms: _58  and  _59
REMARK   25  A    between atoms: _62  and  _64
REMARK   26  A    between atoms: _64  and  _65
REMARK   27  A    between atoms: _64  and  _67
REMARK   28  A    between atoms: _67  and  _68
REMARK   29  A    between atoms: _71  and  _73
REMARK   30  A    between atoms: _73  and  _74
REMARK   31  A    between atoms: _77  and  _79
REMARK   32  A    between atoms: _79  and  _80
REMARK   33  A    between atoms: _79  and  _82
REMARK   34  A    between atoms: _82  and  _83
REMARK   35  A    between atoms: _86  and  _88
REMARK   36  A    between atoms: _88  and  _89
REMARK   37  A    between atoms: _88  and  _91
REMARK   38  A    between atoms: _91  and  _92
REMARK   39  A    between atoms: _92  and  _93
REMARK   40  A    between atoms: _98  and  _100
REMARK   41  A    between atoms: _100  and  _101
REMARK   42  A    between atoms: _100  and  _103
REMARK   43  A    between atoms: _103  and  _104
REMARK   44  A    between atoms: _104  and  _105
REMARK   45  A    between atoms: _108  and  _110
REMARK   46  A    between atoms: _110  and  _111
REMARK   47  A    between atoms: _114  and  _116
REMARK   48  A    between atoms: _116  and  _117
REMARK   49  A    between atoms: _116  and  _119
REMARK   50  A    between atoms: _119  and  _120
REMARK   51  A    between atoms: _123  and  _125
REMARK   52  A    between atoms: _125  and  _126
REMARK   53  A    between atoms: _125  and  _128
REMARK   54  A    between atoms: _128  and  _129
REMARK   55  A    between atoms: _134  and  _136
REMARK   56  A    between atoms: _136  and  _137
REMARK   57  A    between atoms: _136  and  _139
REMARK   58  A    between atoms: _139  and  _140
REMARK   59  A    between atoms: _142  and  _144
REMARK   60  A    between atoms: _144  and  _145
REMARK   61  A    between atoms: _148  and  _150
REMARK   62  A    between atoms: _150  and  _151
REMARK   63  A    between atoms: _154  and  _156
REMARK   64  A    between atoms: _156  and  _157
REMARK   65  A    between atoms: _159  and  _161
REMARK   66  A    between atoms: _161  and  _162
REMARK   67  A    between atoms: _161  and  _164
REMARK   68  A    between atoms: _164  and  _165
REMARK   69  A    between atoms: _168  and  _170
REMARK   70  A    between atoms: _170  and  _171
REMARK   71  A    between atoms: _173  and  _175
REMARK   72  A    between atoms: _175  and  _176
REMARK   73  A    between atoms: _175  and  _178
REMARK   74  A    between atoms: _178  and  _179
REMARK   75  A    between atoms: _184  and  _186
REMARK   76  A    between atoms: _186  and  _187
REMARK   77  A    between atoms: _190  and  _192
REMARK   78  A    between atoms: _192  and  _193
REMARK   79  A    between atoms: _192  and  _195
REMARK   80  A    between atoms: _195  and  _196
REMARK   81  A    between atoms: _196  and  _197
REMARK   82  A    between atoms: _202  and  _204
REMARK   83  A    between atoms: _204  and  _205
REMARK   84  A    between atoms: _204  and  _207
REMARK   85  A    between atoms: _207  and  _208
REMARK   86  A    between atoms: _211  and  _213
REMARK   87  A    between atoms: _213  and  _214
REMARK   88  A    between atoms: _213  and  _216
REMARK   89  A    between atoms: _216  and  _217
REMARK   90  A    between atoms: _220  and  _222
REMARK   91  A    between atoms: _222  and  _223
REMARK   92  A    between atoms: _225  and  _227
REMARK   93  A    between atoms: _227  and  _228
REMARK   94  A    between atoms: _231  and  _233
REMARK   95  A    between atoms: _233  and  _234
REMARK   96  A    between atoms: _233  and  _236
REMARK   97  A    between atoms: _236  and  _237
REMARK   98  A    between atoms: _239  and  _241
REMARK   99  A    between atoms: _241  and  _242
REMARK  100  A    between atoms: _241  and  _244
REMARK  101  A    between atoms: _244  and  _245
REMARK  102  A    between atoms: _250  and  _252
REMARK  103  A    between atoms: _252  and  _253
REMARK  104  A    between atoms: _252  and  _255
REMARK  105  A    between atoms: _255  and  _256
REMARK  106  A    between atoms: _258  and  _260
REMARK  107  A    between atoms: _260  and  _261
REMARK  108  A    between atoms: _264  and  _266
REMARK  109  A    between atoms: _266  and  _267
REMARK  110  A    between atoms: _270  and  _272
REMARK  111  A    between atoms: _272  and  _273
REMARK  112  A    between atoms: _272  and  _275
REMARK  113  A    between atoms: _275  and  _276
REMARK  114  A    between atoms: _276  and  _277
REMARK  115  A    between atoms: _277  and  _278
REMARK  116  A    between atoms: _287  and  _289
REMARK  117  A    between atoms: _289  and  _290
REMARK  118  A    between atoms: _289  and  _292
REMARK  119  A    between atoms: _292  and  _293
REMARK  120  A    between atoms: _298  and  _299
REMARK  121  A    between atoms: _301  and  _303
REMARK  122  A    between atoms: _303  and  _304
REMARK  123  A    between atoms: _303  and  _306
REMARK  124  A    between atoms: _306  and  _307
REMARK  125  A    between atoms: _312  and  _314
REMARK  126  A    between atoms: _314  and  _315
REMARK  127  A    between atoms: _314  and  _317
REMARK  128  A    between atoms: _317  and  _318
REMARK  129  A    between atoms: _318  and  _319
REMARK  130  A    between atoms: _325  and  _326
REMARK  131  A    between atoms: _331  and  _333
REMARK  132  A    between atoms: _333  and  _334
REMARK  133  A    between atoms: _333  and  _336
REMARK  134  A    between atoms: _336  and  _337
REMARK  135  A    between atoms: _342  and  _344
REMARK  136  A    between atoms: _344  and  _345
REMARK  137  A    between atoms: _344  and  _347
REMARK  138  A    between atoms: _347  and  _348
REMARK  139  A    between atoms: _348  and  _349
REMARK  140  A    between atoms: _352  and  _354
REMARK  141  A    between atoms: _354  and  _355
REMARK  142  A    between atoms: _354  and  _357
REMARK  143  A    between atoms: _357  and  _358
REMARK  144  A    between atoms: _360  and  _362
REMARK  145  A    between atoms: _362  and  _363
REMARK  146  A    between atoms: _362  and  _365
REMARK  147  A    between atoms: _365  and  _366
REMARK  148  A    between atoms: _369  and  _371
REMARK  149  A    between atoms: _371  and  _372
REMARK  150  A    between atoms: _371  and  _374
REMARK  151  A    between atoms: _374  and  _375
REMARK  152  A    between atoms: _377  and  _379
REMARK  153  A    between atoms: _379  and  _380
REMARK  154  A    between atoms: _379  and  _382
REMARK  155  A    between atoms: _382  and  _383
REMARK  156  A    between atoms: _386  and  _388
REMARK  157  A    between atoms: _388  and  _389
REMARK  158  A    between atoms: _388  and  _391
REMARK  159  A    between atoms: _391  and  _392
REMARK  160  A    between atoms: _395  and  _397
REMARK  161  A    between atoms: _397  and  _398
REMARK  162  A    between atoms: _397  and  _400
REMARK  163  A    between atoms: _400  and  _401
REMARK  164  A    between atoms: _401  and  _402
REMARK  165  A    between atoms: _407  and  _409
REMARK  166  A    between atoms: _409  and  _410
REMARK  167  A    between atoms: _409  and  _412
REMARK  168  A    between atoms: _412  and  _413
REMARK  169  A    between atoms: _419  and  _421
REMARK  170  A    between atoms: _421  and  _422
REMARK  171  A    between atoms: _421  and  _424
REMARK  172  A    between atoms: _426  and  _428
REMARK  173  A    between atoms: _428  and  _429
REMARK  174  A    between atoms: _432  and  _434
REMARK  175  A    between atoms: _434  and  _435
REMARK  176  A    between atoms: _437  and  _439
REMARK  177  A    between atoms: _439  and  _440
REMARK  178  A    between atoms: _442  and  _444
REMARK  179  A    between atoms: _444  and  _445
REMARK  180  A    between atoms: _444  and  _447
REMARK  181  A    between atoms: _447  and  _448
REMARK  182  A    between atoms: _451  and  _453
REMARK  183  A    between atoms: _453  and  _454
REMARK  184  A    between atoms: _456  and  _458
REMARK  185  A    between atoms: _458  and  _459
REMARK  186  A    between atoms: _458  and  _461
REMARK  187  A    between atoms: _461  and  _462
REMARK  188  A    between atoms: _468  and  _470
REMARK  189  A    between atoms: _470  and  _471
REMARK  190  A    between atoms: _470  and  _473
REMARK  191  A    between atoms: _476  and  _478
REMARK  192  A    between atoms: _478  and  _479
REMARK  193  A    between atoms: _478  and  _481
REMARK  194  A    between atoms: _481  and  _482
REMARK  195  A    between atoms: _485  and  _487
REMARK  196  A    between atoms: _487  and  _488
REMARK  197  A    between atoms: _490  and  _492
REMARK  198  A    between atoms: _492  and  _493
REMARK  199  A    between atoms: _492  and  _495
REMARK  200  A    between atoms: _495  and  _496
REMARK  201  A    between atoms: _496  and  _497
REMARK  202  A    between atoms: _497  and  MG_734
REMARK  203  A    between atoms: _499  and  _501
REMARK  204  A    between atoms: _501  and  _502
REMARK  205  A    between atoms: _504  and  _506
REMARK  206  A    between atoms: _506  and  _507
REMARK  207  A    between atoms: _506  and  _509
REMARK  208  A    between atoms: _509  and  _510
REMARK  209  A    between atoms: _512  and  _514
REMARK  210  A    between atoms: _514  and  _515
REMARK  211  A    between atoms: _518  and  _520
REMARK  212  A    between atoms: _520  and  _521
REMARK  213  A    between atoms: _520  and  _523
REMARK  214  A    between atoms: _523  and  _524
REMARK  215  A    between atoms: _529  and  _531
REMARK  216  A    between atoms: _531  and  _532
REMARK  217  A    between atoms: _531  and  _534
REMARK  218  A    between atoms: _534  and  _535
REMARK  219  A    between atoms: _540  and  _541
REMARK  220  A    between atoms: _543  and  _545
REMARK  221  A    between atoms: _545  and  _546
REMARK  222  A    between atoms: _545  and  _548
REMARK  223  A    between atoms: _548  and  _549
REMARK  224  A    between atoms: _552  and  _554
REMARK  225  A    between atoms: _554  and  _555
REMARK  226  A    between atoms: _554  and  _557
REMARK  227  A    between atoms: _557  and  _558
REMARK  228  A    between atoms: _558  and  _559
REMARK  229  A    between atoms: _561  and  _563
REMARK  230  A    between atoms: _563  and  _564
REMARK  231  A    between atoms: _563  and  _566
REMARK  232  A    between atoms: _566  and  _567
REMARK  233  A    between atoms: _572  and  _574
REMARK  234  A    between atoms: _574  and  _575
REMARK  235  A    between atoms: _574  and  _577
REMARK  236  A    between atoms: _577  and  _578
REMARK  237  A    between atoms: _583  and  _585
REMARK  238  A    between atoms: _585  and  _586
REMARK  239  A    between atoms: _588  and  _590
REMARK  240  A    between atoms: _590  and  _591
REMARK  241  A    between atoms: _590  and  _593
REMARK  242  A    between atoms: _591  and  _592
REMARK  243  A    between atoms: _591  and  _597
REMARK  244  A    between atoms: _592  and  MG_734
REMARK  245  A    between atoms: _593  and  _594
REMARK  246  A    between atoms: _597  and  _599
REMARK  247  A    between atoms: _599  and  _600
REMARK  248  A    between atoms: _599  and  _602
REMARK  249  A    between atoms: _602  and  _603
REMARK  250  A    between atoms: _608  and  _609
REMARK  251  A    between atoms: _611  and  _613
REMARK  252  A    between atoms: _613  and  _614
REMARK  253  A    between atoms: _616  and  _618
REMARK  254  A    between atoms: _618  and  _619
REMARK  255  A    between atoms: _622  and  _624
REMARK  256  A    between atoms: _624  and  _625
REMARK  257  A    between atoms: _624  and  _627
REMARK  258  A    between atoms: _627  and  _628
REMARK  259  A    between atoms: _631  and  _633
REMARK  260  A    between atoms: _633  and  _634
REMARK  261  A    between atoms: _633  and  _636
REMARK  262  A    between atoms: _636  and  _637
REMARK  263  A    between atoms: _637  and  _638
REMARK  264  A    between atoms: _638  and  _639
REMARK  265  A    between atoms: _648  and  _650
REMARK  266  A    between atoms: _650  and  _651
REMARK  267  A    between atoms: _650  and  _653
REMARK  268  A    between atoms: _653  and  _654
REMARK  269  A    between atoms: _664  and  _666
REMARK  270  A    between atoms: _666  and  _667
REMARK  271  A    between atoms: _666  and  _669
REMARK  272  A    between atoms: _669  and  _670
REMARK  273  A    between atoms: _676  and  _678
REMARK  274  A    between atoms: _678  and  _679
REMARK  275  A    between atoms: _681  and  _683
REMARK  276  A    between atoms: _683  and  _684
REMARK  277  A    between atoms: _683  and  _686
REMARK  278  A    between atoms: _686  and  _687
REMARK  279  A    between atoms: _690  and  _692
REMARK  280  A    between atoms: _692  and  _693
REMARK  281  A    between atoms: _692  and  _695
REMARK  282  A    between atoms: _698  and  _700
REMARK  283  A    between atoms: _700  and  _701
REMARK  284  A    between atoms: _700  and  _703
REMARK  285  A    between atoms: _703  and  _704
REMARK  286  A    between atoms: _710  and  _712
REMARK  287  A    between atoms: _712  and  _713
REMARK  288  A    between atoms: _712  and  _715
REMARK  289  A    between atoms: _715  and  _716
REMARK  290  A    between atoms: _719  and  _721
REMARK  291  A    between atoms: _721  and  _722
REMARK  292  A    between atoms: _721  and  _724
REMARK  293  A    between atoms: _728  and  _729
REMARK                            x       y       z     vdW  Elec       q    Type
REMARK                         _______ _______ _______ _____ _____    ______ ____
ROOT
ATOM      1  C   SER A   4      61.856  50.512 155.451  0.00  0.00    +0.243 C 
ATOM      2  O   SER A   4      60.685  50.170 155.203  0.00  0.00    -0.273 OA
ATOM      3  N   ASN A   5      62.882  50.345 154.578  0.00  0.00    -0.297 N 
ATOM      4  H   ASN A   5      63.846  50.644 154.831  0.00  0.00    +0.150 HD
ENDROOT
BRANCH   3   5
ATOM      5  CA  ASN A   5      62.604  49.726 153.252  0.00  0.00    +0.158 C 
BRANCH   5   6
ATOM      6  C   ASN A   5      62.279  48.217 153.356  0.00  0.00    +0.241 C 
ATOM      7  N   GLU A   6      62.599  47.627 154.512  0.00  0.00    -0.297 N 
ATOM      8  H   GLU A   6      63.016  48.203 155.271  0.00  0.00    +0.150 HD
ATOM      9  O   ASN A   5      61.787  47.585 152.409  0.00  0.00    -0.273 OA
BRANCH   7  10
ATOM     10  CA  GLU A   6      62.386  46.220 154.742  0.00  0.00    +0.149 C 
BRANCH  10  11
ATOM     11  C   GLU A   6      61.100  45.893 155.557  0.00  0.00    +0.241 C 
ATOM     12  N   LEU A   7      60.422  46.906 156.149  0.00  0.00    -0.298 N 
ATOM     13  H   LEU A   7      60.747  47.888 156.040  0.00  0.00    +0.150 HD
ATOM     14  O   GLU A   6      60.733  44.736 155.605  0.00  0.00    -0.273 OA
BRANCH  12  15
ATOM     15  CA  LEU A   7      59.233  46.609 156.940  0.00  0.00    +0.137 C 
BRANCH  15  16
ATOM     16  C   LEU A   7      58.174  45.886 156.139  0.00  0.00    +0.227 C 
ATOM     17  O   LEU A   7      57.493  45.006 156.701  0.00  0.00    -0.286 OA
ENDBRANCH  15  16
BRANCH  15  18
ATOM     18  CB  LEU A   7      58.679  47.869 157.588  0.00  0.00    +0.028 C 
BRANCH  18  19
ATOM     19  CG  LEU A   7      59.684  48.569 158.484  0.00  0.00    +0.002 C 
ATOM     20  CD2 LEU A   7      60.009  47.695 159.685  0.00  0.00    +0.000 C 
ATOM     21  CD1 LEU A   7      59.136  50.000 158.927  0.00  0.00    +0.000 C 
ENDBRANCH  18  19
ENDBRANCH  15  18
ENDBRANCH  12  15
ENDBRANCH  10  11
BRANCH  10  22
ATOM     22  CB  GLU A   6      63.596  45.652 155.477  0.00  0.00    +0.041 C 
BRANCH  22  23
ATOM     23  CG  GLU A   6      64.982  45.845 154.691  0.00  0.00    +0.116 C 
BRANCH  23  24
ATOM     24  CD  GLU A   6      65.450  47.306 154.621  0.00  0.00    +0.365 C 
ATOM     25  OE2 GLU A   6      65.271  48.099 155.573  0.00  0.00    -0.246 OA
ATOM     26  OE1 GLU A   6      65.963  47.707 153.572  0.00  0.00    -0.246 OA
ENDBRANCH  23  24
ENDBRANCH  22  23
ENDBRANCH  10  22
ENDBRANCH   7  10
ENDBRANCH   5   6
BRANCH   5  27
ATOM     27  CB  ASN A   5      63.756  49.823 152.277  0.00  0.00    +0.114 C 
BRANCH  27  28
ATOM     28  CG  ASN A   5      64.071  51.252 151.830  0.00  0.00    +0.222 C 
ATOM     29  OD1 ASN A   5      63.289  52.196 151.971  0.00  0.00    -0.275 OA
ATOM     30  ND2 ASN A   5      65.312  51.420 151.280  0.00  0.00    -0.329 N 
ATOM     31 HD21 ASN A   5      65.949  50.604 151.174  0.00  0.00    +0.145 HD
ATOM     32 HD22 ASN A   5      65.619  52.363 150.967  0.00  0.00    +0.145 HD
ENDBRANCH  27  28
ENDBRANCH   5  27
ENDBRANCH   3   5
BRANCH   1  33
ATOM     33  CA  SER A   4      62.162  51.079 156.830  0.00  0.00    +0.178 C 
BRANCH  33  36
ATOM     34  C   GLY A   3      63.737  49.515 157.659  0.00  0.00    +0.243 C 
ATOM     35  O   GLY A   3      62.885  48.593 157.441  0.00  0.00    -0.273 OA
ATOM     36  N   SER A   4      63.533  50.762 157.228  0.00  0.00    -0.295 N 
ATOM     37  H   SER A   4      64.300  51.463 157.178  0.00  0.00    +0.150 HD
BRANCH  34  38
ATOM     38  CA  GLY A   3      65.083  49.235 158.328  0.00  0.00    +0.176 C 
BRANCH  38  41
ATOM     39  C   PRO A   2      65.946  47.399 159.753  0.00  0.00    +0.241 C 
ATOM     40  O   PRO A   2      66.616  48.187 160.414  0.00  0.00    -0.273 OA
ATOM     41  N   GLY A   3      65.204  47.812 158.715  0.00  0.00    -0.295 N 
ATOM     42  H   GLY A   3      64.691  47.100 158.157  0.00  0.00    +0.150 HD
BRANCH  39  48
ATOM     43  C   ASN A   1      68.084  45.203 160.324  0.00  0.00    +0.242 C 
ATOM     44  N   PRO A   2      66.936  45.445 160.942  0.00  0.00    -0.272 N 
ATOM     45  CD  PRO A   2      66.579  45.312 162.373  0.00  0.00    +0.094 C 
ATOM     46  CG  PRO A   2      65.134  45.965 162.452  0.00  0.00    +0.024 C 
ATOM     47  CB  PRO A   2      64.589  45.730 161.010  0.00  0.00    +0.031 C 
ATOM     48  CA  PRO A   2      65.849  45.936 160.115  0.00  0.00    +0.152 C 
ATOM     49  O   ASN A   1      68.289  45.453 159.134  0.00  0.00    -0.273 OA
BRANCH  43  50
ATOM     50  CA  ASN A   1      69.091  44.416 161.148  0.00  0.00    +0.154 C 
BRANCH  50  51
ATOM     51  N   ASN A   1      69.203  43.160 160.408  0.00  0.00    -0.238 NA
ATOM     52  H   ASN A   1      69.346  43.208 159.379  0.00  0.00    +0.142 HD
ENDBRANCH  50  51
BRANCH  50  53
ATOM     53  CB  ASN A   1      70.482  45.099 161.259  0.00  0.00    +0.111 C 
BRANCH  53  54
ATOM     54  CG  ASN A   1      70.366  46.415 162.020  0.00  0.00    +0.221 C 
ATOM     55  ND2 ASN A   1      70.421  46.328 163.359  0.00  0.00    -0.329 N 
ATOM     56 HD21 ASN A   1      70.296  47.181 163.941  0.00  0.00    +0.145 HD
ATOM     57 HD22 ASN A   1      70.588  45.408 163.814  0.00  0.00    +0.145 HD
ATOM     58  OD1 ASN A   1      70.168  47.494 161.424  0.00  0.00    -0.275 OA
ENDBRANCH  53  54
ENDBRANCH  50  53
ENDBRANCH  43  50
ENDBRANCH  39  48
ENDBRANCH  38  41
ENDBRANCH  34  38
ENDBRANCH  33  36
BRANCH  33  59
ATOM     59  CB  SER A   4      61.894  52.580 156.841  0.00  0.00    +0.166 C 
BRANCH  59  60
ATOM     60  OG  SER A   4      62.950  53.179 156.094  0.00  0.00    -0.380 OA
ATOM     61  H   SER A   4      62.943  52.823 155.170  0.00  0.00    +0.211 HD
ENDBRANCH  59  60
ENDBRANCH  33  59
ENDBRANCH   1  33
TORSDOF 24
REMARK  Name = ../refined-set-2016/3f6e/3f6e_pocket.pdb
REMARK  293 active torsions:
REMARK  status: ('A' for Active; 'I' for Inactive)
REMARK    1  A    between atoms: _1  and  _3
REMARK    2  A    between atoms: _3  and  _4
REMARK    3  A    between atoms: _3  and  _6
REMARK    4  A    between atoms: _6  and  _7
REMARK    5  A    between atoms: _13  and  _14
REMARK    6  A    between atoms: _19  and  _21
REMARK    7  A    between atoms: _21  and  _22
REMARK    8  A    between atoms: _24  and  _26
REMARK    9  A    between atoms: _26  and  _27
REMARK   10  A    between atoms: _26  and  _29
REMARK   11  A    between atoms: _29  and  _30
REMARK   12  A    between atoms: _32  and  _34
REMARK   13  A    between atoms: _34  and  _35
REMARK   14  A    between atoms: _34  and  _37
REMARK   15  A    between atoms: _37  and  _38
REMARK   16  A    between atoms: _43  and  _45
REMARK   17  A    between atoms: _45  and  _46
REMARK   18  A    between atoms: _45  and  _48
REMARK   19  A    between atoms: _48  and  _49
REMARK   20  A    between atoms: _49  and  _50
REMARK   21  A    between atoms: _53  and  _55
REMARK   22  A    between atoms: _55  and  _56
REMARK   23  A    between atoms: _55  and  _58
REMARK   24  A    between atoms: _58  and  _59
REMARK   25  A    between atoms: _62  and  _64
REMARK   26  A    between atoms: _64  and  _65
REMARK   27  A    between atoms: _64  and  _67
REMARK   28  A    between atoms: _67  and  _68
REMARK   29  A    between atoms: _71  and  _73
REMARK   30  A    between atoms: _73  and  _74
REMARK   31  A    between atoms: _77  and  _79
REMARK   32  A    between atoms: _79  and  _80
REMARK   33  A    between atoms: _79  and  _82
REMARK   34  A    between atoms: _82  and  _83
REMARK   35  A    between atoms: _86  and  _88
REMARK   36  A    between atoms: _88  and  _89
REMARK   37  A    between atoms: _88  and  _91
REMARK   38  A    between atoms: _91  and  _92
REMARK   39  A    between atoms: _92  and  _93
REMARK   40  A    between atoms: _98  and  _100
REMARK   41  A    between atoms: _100  and  _101
REMARK   42  A    between atoms: _100  and  _103
REMARK   43  A    between atoms: _103  and  _104
REMARK   44  A    between atoms: _104  and  _105
REMARK   45  A    between atoms: _108  and  _110
REMARK   46  A    between atoms: _110  and  _111
REMARK   47  A    between atoms: _114  and  _116
REMARK   48  A    between atoms: _116  and  _117
REMARK   49  A    between atoms: _116  and  _119
REMARK   50  A    between atoms: _119  and  _120
REMARK   51  A    between atoms: _123  and  _125
REMARK   52  A    between atoms: _125  and  _126
REMARK   53  A    between atoms: _125  and  _128
REMARK   54  A    between atoms: _128  and  _129
REMARK   55  A    between atoms: _134  and  _136
REMARK   56  A    between atoms: _136  and  _137
REMARK   57  A    between atoms: _136  and  _139
REMARK   58  A    between atoms: _139  and  _140
REMARK   59  A    between atoms: _142  and  _144
REMARK   60  A    between atoms: _144  and  _145
REMARK   61  A    between atoms: _148  and  _150
REMARK   62  A    between atoms: _150  and  _151
REMARK   63  A    between atoms: _154  and  _156
REMARK   64  A    between atoms: _156  and  _157
REMARK   65  A    between atoms: _159  and  _161
REMARK   66  A    between atoms: _161  and  _162
REMARK   67  A    between atoms: _161  and  _164
REMARK   68  A    between atoms: _164  and  _165
REMARK   69  A    between atoms: _168  and  _170
REMARK   70  A    between atoms: _170  and  _171
REMARK   71  A    between atoms: _173  and  _175
REMARK   72  A    between atoms: _175  and  _176
REMARK   73  A    between atoms: _175  and  _178
REMARK   74  A    between atoms: _178  and  _179
REMARK   75  A    between atoms: _184  and  _186
REMARK   76  A    between atoms: _186  and  _187
REMARK   77  A    between atoms: _190  and  _192
REMARK   78  A    between atoms: _192  and  _193
REMARK   79  A    between atoms: _192  and  _195
REMARK   80  A    between atoms: _195  and  _196
REMARK   81  A    between atoms: _196  and  _197
REMARK   82  A    between atoms: _202  and  _204
REMARK   83  A    between atoms: _204  and  _205
REMARK   84  A    between atoms: _204  and  _207
REMARK   85  A    between atoms: _207  and  _208
REMARK   86  A    between atoms: _211  and  _213
REMARK   87  A    between atoms: _213  and  _214
REMARK   88  A    between atoms: _213  and  _216
REMARK   89  A    between atoms: _216  and  _217
REMARK   90  A    between atoms: _220  and  _222
REMARK   91  A    between atoms: _222  and  _223
REMARK   92  A    between atoms: _225  and  _227
REMARK   93  A    between atoms: _227  and  _228
REMARK   94  A    between atoms: _231  and  _233
REMARK   95  A    between atoms: _233  and  _234
REMARK   96  A    between atoms: _233  and  _236
REMARK   97  A    between atoms: _236  and  _237
REMARK   98  A    between atoms: _239  and  _241
REMARK   99  A    between atoms: _241  and  _242
REMARK  100  A    between atoms: _241  and  _244
REMARK  101  A    between atoms: _244  and  _245
REMARK  102  A    between atoms: _250  and  _252
REMARK  103  A    between atoms: _252  and  _253
REMARK  104  A    between atoms: _252  and  _255
REMARK  105  A    between atoms: _255  and  _256
REMARK  106  A    between atoms: _258  and  _260
REMARK  107  A    between atoms: _260  and  _261
REMARK  108  A    between atoms: _264  and  _266
REMARK  109  A    between atoms: _266  and  _267
REMARK  110  A    between atoms: _270  and  _272
REMARK  111  A    between atoms: _272  and  _273
REMARK  112  A    between atoms: _272  and  _275
REMARK  113  A    between atoms: _275  and  _276
REMARK  114  A    between atoms: _276  and  _277
REMARK  115  A    between atoms: _277  and  _278
REMARK  116  A    between atoms: _287  and  _289
REMARK  117  A    between atoms: _289  and  _290
REMARK  118  A    between atoms: _289  and  _292
REMARK  119  A    between atoms: _292  and  _293
REMARK  120  A    between atoms: _298  and  _299
REMARK  121  A    between atoms: _301  and  _303
REMARK  122  A    between atoms: _303  and  _304
REMARK  123  A    between atoms: _303  and  _306
REMARK  124  A    between atoms: _306  and  _307
REMARK  125  A    between atoms: _312  and  _314
REMARK  126  A    between atoms: _314  and  _315
REMARK  127  A    between atoms: _314  and  _317
REMARK  128  A    between atoms: _317  and  _318
REMARK  129  A    between atoms: _318  and  _319
REMARK  130  A    between atoms: _325  and  _326
REMARK  131  A    between atoms: _331  and  _333
REMARK  132  A    between atoms: _333  and  _334
REMARK  133  A    between atoms: _333  and  _336
REMARK  134  A    between atoms: _336  and  _337
REMARK  135  A    between atoms: _342  and  _344
REMARK  136  A    between atoms: _344  and  _345
REMARK  137  A    between atoms: _344  and  _347
REMARK  138  A    between atoms: _347  and  _348
REMARK  139  A    between atoms: _348  and  _349
REMARK  140  A    between atoms: _352  and  _354
REMARK  141  A    between atoms: _354  and  _355
REMARK  142  A    between atoms: _354  and  _357
REMARK  143  A    between atoms: _357  and  _358
REMARK  144  A    between atoms: _360  and  _362
REMARK  145  A    between atoms: _362  and  _363
REMARK  146  A    between atoms: _362  and  _365
REMARK  147  A    between atoms: _365  and  _366
REMARK  148  A    between atoms: _369  and  _371
REMARK  149  A    between atoms: _371  and  _372
REMARK  150  A    between atoms: _371  and  _374
REMARK  151  A    between atoms: _374  and  _375
REMARK  152  A    between atoms: _377  and  _379
REMARK  153  A    between atoms: _379  and  _380
REMARK  154  A    between atoms: _379  and  _382
REMARK  155  A    between atoms: _382  and  _383
REMARK  156  A    between atoms: _386  and  _388
REMARK  157  A    between atoms: _388  and  _389
REMARK  158  A    between atoms: _388  and  _391
REMARK  159  A    between atoms: _391  and  _392
REMARK  160  A    between atoms: _395  and  _397
REMARK  161  A    between atoms: _397  and  _398
REMARK  162  A    between atoms: _397  and  _400
REMARK  163  A    between atoms: _400  and  _401
REMARK  164  A    between atoms: _401  and  _402
REMARK  165  A    between atoms: _407  and  _409
REMARK  166  A    between atoms: _409  and  _410
REMARK  167  A    between atoms: _409  and  _412
REMARK  168  A    between atoms: _412  and  _413
REMARK  169  A    between atoms: _419  and  _421
REMARK  170  A    between atoms: _421  and  _422
REMARK  171  A    between atoms: _421  and  _424
REMARK  172  A    between atoms: _426  and  _428
REMARK  173  A    between atoms: _428  and  _429
REMARK  174  A    between atoms: _432  and  _434
REMARK  175  A    between atoms: _434  and  _435
REMARK  176  A    between atoms: _437  and  _439
REMARK  177  A    between atoms: _439  and  _440
REMARK  178  A    between atoms: _442  and  _444
REMARK  179  A    between atoms: _444  and  _445
REMARK  180  A    between atoms: _444  and  _447
REMARK  181  A    between atoms: _447  and  _448
REMARK  182  A    between atoms: _451  and  _453
REMARK  183  A    between atoms: _453  and  _454
REMARK  184  A    between atoms: _456  and  _458
REMARK  185  A    between atoms: _458  and  _459
REMARK  186  A    between atoms: _458  and  _461
REMARK  187  A    between atoms: _461  and  _462
REMARK  188  A    between atoms: _468  and  _470
REMARK  189  A    between atoms: _470  and  _471
REMARK  190  A    between atoms: _470  and  _473
REMARK  191  A    between atoms: _476  and  _478
REMARK  192  A    between atoms: _478  and  _479
REMARK  193  A    between atoms: _478  and  _481
REMARK  194  A    between atoms: _481  and  _482
REMARK  195  A    between atoms: _485  and  _487
REMARK  196  A    between atoms: _487  and  _488
REMARK  197  A    between atoms: _490  and  _492
REMARK  198  A    between atoms: _492  and  _493
REMARK  199  A    between atoms: _492  and  _495
REMARK  200  A    between atoms: _495  and  _496
REMARK  201  A    between atoms: _496  and  _497
REMARK  202  A    between atoms: _497  and  MG_734
REMARK  203  A    between atoms: _499  and  _501
REMARK  204  A    between atoms: _501  and  _502
REMARK  205  A    between atoms: _504  and  _506
REMARK  206  A    between atoms: _506  and  _507
REMARK  207  A    between atoms: _506  and  _509
REMARK  208  A    between atoms: _509  and  _510
REMARK  209  A    between atoms: _512  and  _514
REMARK  210  A    between atoms: _514  and  _515
REMARK  211  A    between atoms: _518  and  _520
REMARK  212  A    between atoms: _520  and  _521
REMARK  213  A    between atoms: _520  and  _523
REMARK  214  A    between atoms: _523  and  _524
REMARK  215  A    between atoms: _529  and  _531
REMARK  216  A    between atoms: _531  and  _532
REMARK  217  A    between atoms: _531  and  _534
REMARK  218  A    between atoms: _534  and  _535
REMARK  219  A    between atoms: _540  and  _541
REMARK  220  A    between atoms: _543  and  _545
REMARK  221  A    between atoms: _545  and  _546
REMARK  222  A    between atoms: _545  and  _548
REMARK  223  A    between atoms: _548  and  _549
REMARK  224  A    between atoms: _552  and  _554
REMARK  225  A    between atoms: _554  and  _555
REMARK  226  A    between atoms: _554  and  _557
REMARK  227  A    between atoms: _557  and  _558
REMARK  228  A    between atoms: _558  and  _559
REMARK  229  A    between atoms: _561  and  _563
REMARK  230  A    between atoms: _563  and  _564
REMARK  231  A    between atoms: _563  and  _566
REMARK  232  A    between atoms: _566  and  _567
REMARK  233  A    between atoms: _572  and  _574
REMARK  234  A    between atoms: _574  and  _575
REMARK  235  A    between atoms: _574  and  _577
REMARK  236  A    between atoms: _577  and  _578
REMARK  237  A    between atoms: _583  and  _585
REMARK  238  A    between atoms: _585  and  _586
REMARK  239  A    between atoms: _588  and  _590
REMARK  240  A    between atoms: _590  and  _591
REMARK  241  A    between atoms: _590  and  _593
REMARK  242  A    between atoms: _591  and  _592
REMARK  243  A    between atoms: _591  and  _597
REMARK  244  A    between atoms: _592  and  MG_734
REMARK  245  A    between atoms: _593  and  _594
REMARK  246  A    between atoms: _597  and  _599
REMARK  247  A    between atoms: _599  and  _600
REMARK  248  A    between atoms: _599  and  _602
REMARK  249  A    between atoms: _602  and  _603
REMARK  250  A    between atoms: _608  and  _609
REMARK  251  A    between atoms: _611  and  _613
REMARK  252  A    between atoms: _613  and  _614
REMARK  253  A    between atoms: _616  and  _618
REMARK  254  A    between atoms: _618  and  _619
REMARK  255  A    between atoms: _622  and  _624
REMARK  256  A    between atoms: _624  and  _625
REMARK  257  A    between atoms: _624  and  _627
REMARK  258  A    between atoms: _627  and  _628
REMARK  259  A    between atoms: _631  and  _633
REMARK  260  A    between atoms: _633  and  _634
REMARK  261  A    between atoms: _633  and  _636
REMARK  262  A    between atoms: _636  and  _637
REMARK  263  A    between atoms: _637  and  _638
REMARK  264  A    between atoms: _638  and  _639
REMARK  265  A    between atoms: _648  and  _650
REMARK  266  A    between atoms: _650  and  _651
REMARK  267  A    between atoms: _650  and  _653
REMARK  268  A    between atoms: _653  and  _654
REMARK  269  A    between atoms: _664  and  _666
REMARK  270  A    between atoms: _666  and  _667
REMARK  271  A    between atoms: _666  and  _669
REMARK  272  A    between atoms: _669  and  _670
REMARK  273  A    between atoms: _676  and  _678
REMARK  274  A    between atoms: _678  and  _679
REMARK  275  A    between atoms: _681  and  _683
REMARK  276  A    between atoms: _683  and  _684
REMARK  277  A    between atoms: _683  and  _686
REMARK  278  A    between atoms: _686  and  _687
REMARK  279  A    between atoms: _690  and  _692
REMARK  280  A    between atoms: _692  and  _693
REMARK  281  A    between atoms: _692  and  _695
REMARK  282  A    between atoms: _698  and  _700
REMARK  283  A    between atoms: _700  and  _701
REMARK  284  A    between atoms: _700  and  _703
REMARK  285  A    between atoms: _703  and  _704
REMARK  286  A    between atoms: _710  and  _712
REMARK  287  A    between atoms: _712  and  _713
REMARK  288  A    between atoms: _712  and  _715
REMARK  289  A    between atoms: _715  and  _716
REMARK  290  A    between atoms: _719  and  _721
REMARK  291  A    between atoms: _721  and  _722
REMARK  292  A    between atoms: _721  and  _724
REMARK  293  A    between atoms: _728  and  _729
REMARK                            x       y       z     vdW  Elec       q    Type
REMARK                         _______ _______ _______ _____ _____    ______ ____
ROOT
ATOM      1  C   LEU A   3      73.731  46.200 165.130  0.00  0.00    +0.241 C 
ATOM      2  O   LEU A   3      73.578  47.374 165.082  0.00  0.00    -0.273 OA
ATOM      3  N   GLN A   4      74.542  45.511 164.325  0.00  0.00    -0.297 N 
ATOM      4  H   GLN A   4      74.647  44.485 164.460  0.00  0.00    +0.150 HD
ENDROOT
BRANCH   3   5
ATOM      5  CA  GLN A   4      75.288  46.180 163.252  0.00  0.00    +0.149 C 
BRANCH   5   6
ATOM      6  C   GLN A   4      75.450  45.082 162.146  0.00  0.00    +0.241 C 
ATOM      7  O   GLN A   4      75.431  43.876 162.422  0.00  0.00    -0.273 OA
ATOM      8  N   GLU A   5      75.544  45.533 160.893  0.00  0.00    -0.297 N 
ATOM      9  H   GLU A   5      75.657  46.550 160.708  0.00  0.00    +0.150 HD
BRANCH   8  10
ATOM     10  CA  GLU A   5      75.486  44.571 159.770  0.00  0.00    +0.149 C 
BRANCH  10  11
ATOM     11  C   GLU A   5      76.675  43.686 159.574  0.00  0.00    +0.241 C 
ATOM     12  N   ALA A   6      77.852  44.170 160.009  0.00  0.00    -0.298 N 
ATOM     13  H   ALA A   6      77.968  45.142 160.361  0.00  0.00    +0.150 HD
ATOM     14  O   GLU A   5      76.541  42.570 159.042  0.00  0.00    -0.273 OA
BRANCH  12  15
ATOM     15  CA  ALA A   6      78.936  43.229 159.945  0.00  0.00    +0.137 C 
ATOM     16  CB  ALA A   6      80.232  43.878 160.358  0.00  0.00    +0.030 C 
BRANCH  15  17
ATOM     17  C   ALA A   6      78.628  42.035 160.886  0.00  0.00    +0.227 C 
ATOM     18  O   ALA A   6      79.004  40.876 160.609  0.00  0.00    -0.286 OA
ENDBRANCH  15  17
ENDBRANCH  12  15
ENDBRANCH  10  11
BRANCH  10  19
ATOM     19  CB  GLU A   5      75.133  45.331 158.475  0.00  0.00    +0.041 C 
BRANCH  19  20
ATOM     20  CG  GLU A   5      73.765  45.981 158.498  0.00  0.00    +0.116 C 
BRANCH  20  21
ATOM     21  CD  GLU A   5      73.681  47.313 159.222  0.00  0.00    +0.365 C 
ATOM     22  OE2 GLU A   5      74.630  47.881 159.705  0.00  0.00    -0.246 OA
ATOM     23  OE1 GLU A   5      72.504  47.897 159.246  0.00  0.00    -0.246 OA
ENDBRANCH  20  21
ENDBRANCH  19  20
ENDBRANCH  10  19
ENDBRANCH   8  10
ENDBRANCH   5   6
BRANCH   5  24
ATOM     24  CB  GLN A   4      76.691  46.687 163.691  0.00  0.00    +0.039 C 
BRANCH  24  25
ATOM     25  CG  GLN A   4      77.231  47.857 162.794  0.00  0.00    +0.087 C 
BRANCH  25  26
ATOM     26  CD  GLN A   4      78.330  47.454 161.846  0.00  0.00    +0.219 C 
ATOM     27  OE1 GLN A   4      78.674  46.285 161.731  0.00  0.00    -0.275 OA
ATOM     28  NE2 GLN A   4      78.942  48.454 161.216  0.00  0.00    -0.329 N 
ATOM     29 HE21 GLN A   4      78.611  49.431 161.347  0.00  0.00    +0.145 HD
ATOM     30 HE22 GLN A   4      79.751  48.258 160.593  0.00  0.00    +0.145 HD
ENDBRANCH  25  26
ENDBRANCH  24  25
ENDBRANCH   5  24
ENDBRANCH   3   5
BRANCH   1  31
ATOM     31  CA  LEU A   3      72.944  45.440 166.202  0.00  0.00    +0.149 C 
BRANCH  31  33
ATOM     32  C   ALA A   2      72.152  43.317 165.290  0.00  0.00    +0.241 C 
ATOM     33  N   LEU A   3      72.984  44.011 166.060  0.00  0.00    -0.297 N 
ATOM     34  H   LEU A   3      73.708  43.488 166.592  0.00  0.00    +0.150 HD
ATOM     35  O   ALA A   2      71.465  43.859 164.430  0.00  0.00    -0.273 OA
BRANCH  32  36
ATOM     36  CA  ALA A   2      72.100  41.806 165.461  0.00  0.00    +0.149 C 
ATOM     37  CB  ALA A   2      73.239  41.137 164.768  0.00  0.00    +0.031 C 
BRANCH  36  40
ATOM     38  C   LEU A   1      70.073  40.499 165.734  0.00  0.00    +0.238 C 
ATOM     39  O   LEU A   1      70.484  39.928 166.739  0.00  0.00    -0.274 OA
ATOM     40  N   ALA A   2      70.816  41.286 164.976  0.00  0.00    -0.297 N 
ATOM     41  H   ALA A   2      70.487  41.540 164.023  0.00  0.00    +0.150 HD
BRANCH  38  42
ATOM     42  CA  LEU A   1      68.591  40.366 165.286  0.00  0.00    +0.145 C 
BRANCH  42  43
ATOM     43  N   LEU A   1      68.099  38.997 165.301  0.00  0.00    -0.238 NA
ATOM     44  H   LEU A   1      67.502  38.691 166.096  0.00  0.00    +0.142 HD
ENDBRANCH  42  43
BRANCH  42  45
ATOM     45  CB  LEU A   1      67.699  41.277 166.212  0.00  0.00    +0.026 C 
BRANCH  45  46
ATOM     46  CG  LEU A   1      68.090  42.711 166.308  0.00  0.00    +0.002 C 
ATOM     47  CD2 LEU A   1      67.282  43.456 167.375  0.00  0.00    +0.000 C 
ATOM     48  CD1 LEU A   1      67.885  43.449 164.973  0.00  0.00    +0.000 C 
ENDBRANCH  45  46
ENDBRANCH  42  45
ENDBRANCH  38  42
ENDBRANCH  36  40
ENDBRANCH  32  36
ENDBRANCH  31  33
BRANCH  31  49
ATOM     49  CB  LEU A   3      73.597  45.799 167.584  0.00  0.00    +0.029 C 
BRANCH  49  50
ATOM     50  CG  LEU A   3      72.710  45.255 168.762  0.00  0.00    +0.002 C 
ATOM     51  CD2 LEU A   3      73.362  45.667 170.073  0.00  0.00    +0.000 C 
ATOM     52  CD1 LEU A   3      71.190  45.689 168.817  0.00  0.00    +0.000 C 
ENDBRANCH  49  50
ENDBRANCH  31  49
ENDBRANCH   1  31
TORSDOF 22
REMARK  Name = ../refined-set-2016/3f6e/3f6e_pocket.pdb
REMARK  293 active torsions:
REMARK  status: ('A' for Active; 'I' for Inactive)
REMARK    1  A    between atoms: _1  and  _3
REMARK    2  A    between atoms: _3  and  _4
REMARK    3  A    between atoms: _3  and  _6
REMARK    4  A    between atoms: _6  and  _7
REMARK    5  A    between atoms: _13  and  _14
REMARK    6  A    between atoms: _19  and  _21
REMARK    7  A    between atoms: _21  and  _22
REMARK    8  A    between atoms: _24  and  _26
REMARK    9  A    between atoms: _26  and  _27
REMARK   10  A    between atoms: _26  and  _29
REMARK   11  A    between atoms: _29  and  _30
REMARK   12  A    between atoms: _32  and  _34
REMARK   13  A    between atoms: _34  and  _35
REMARK   14  A    between atoms: _34  and  _37
REMARK   15  A    between atoms: _37  and  _38
REMARK   16  A    between atoms: _43  and  _45
REMARK   17  A    between atoms: _45  and  _46
REMARK   18  A    between atoms: _45  and  _48
REMARK   19  A    between atoms: _48  and  _49
REMARK   20  A    between atoms: _49  and  _50
REMARK   21  A    between atoms: _53  and  _55
REMARK   22  A    between atoms: _55  and  _56
REMARK   23  A    between atoms: _55  and  _58
REMARK   24  A    between atoms: _58  and  _59
REMARK   25  A    between atoms: _62  and  _64
REMARK   26  A    between atoms: _64  and  _65
REMARK   27  A    between atoms: _64  and  _67
REMARK   28  A    between atoms: _67  and  _68
REMARK   29  A    between atoms: _71  and  _73
REMARK   30  A    between atoms: _73  and  _74
REMARK   31  A    between atoms: _77  and  _79
REMARK   32  A    between atoms: _79  and  _80
REMARK   33  A    between atoms: _79  and  _82
REMARK   34  A    between atoms: _82  and  _83
REMARK   35  A    between atoms: _86  and  _88
REMARK   36  A    between atoms: _88  and  _89
REMARK   37  A    between atoms: _88  and  _91
REMARK   38  A    between atoms: _91  and  _92
REMARK   39  A    between atoms: _92  and  _93
REMARK   40  A    between atoms: _98  and  _100
REMARK   41  A    between atoms: _100  and  _101
REMARK   42  A    between atoms: _100  and  _103
REMARK   43  A    between atoms: _103  and  _104
REMARK   44  A    between atoms: _104  and  _105
REMARK   45  A    between atoms: _108  and  _110
REMARK   46  A    between atoms: _110  and  _111
REMARK   47  A    between atoms: _114  and  _116
REMARK   48  A    between atoms: _116  and  _117
REMARK   49  A    between atoms: _116  and  _119
REMARK   50  A    between atoms: _119  and  _120
REMARK   51  A    between atoms: _123  and  _125
REMARK   52  A    between atoms: _125  and  _126
REMARK   53  A    between atoms: _125  and  _128
REMARK   54  A    between atoms: _128  and  _129
REMARK   55  A    between atoms: _134  and  _136
REMARK   56  A    between atoms: _136  and  _137
REMARK   57  A    between atoms: _136  and  _139
REMARK   58  A    between atoms: _139  and  _140
REMARK   59  A    between atoms: _142  and  _144
REMARK   60  A    between atoms: _144  and  _145
REMARK   61  A    between atoms: _148  and  _150
REMARK   62  A    between atoms: _150  and  _151
REMARK   63  A    between atoms: _154  and  _156
REMARK   64  A    between atoms: _156  and  _157
REMARK   65  A    between atoms: _159  and  _161
REMARK   66  A    between atoms: _161  and  _162
REMARK   67  A    between atoms: _161  and  _164
REMARK   68  A    between atoms: _164  and  _165
REMARK   69  A    between atoms: _168  and  _170
REMARK   70  A    between atoms: _170  and  _171
REMARK   71  A    between atoms: _173  and  _175
REMARK   72  A    between atoms: _175  and  _176
REMARK   73  A    between atoms: _175  and  _178
REMARK   74  A    between atoms: _178  and  _179
REMARK   75  A    between atoms: _184  and  _186
REMARK   76  A    between atoms: _186  and  _187
REMARK   77  A    between atoms: _190  and  _192
REMARK   78  A    between atoms: _192  and  _193
REMARK   79  A    between atoms: _192  and  _195
REMARK   80  A    between atoms: _195  and  _196
REMARK   81  A    between atoms: _196  and  _197
REMARK   82  A    between atoms: _202  and  _204
REMARK   83  A    between atoms: _204  and  _205
REMARK   84  A    between atoms: _204  and  _207
REMARK   85  A    between atoms: _207  and  _208
REMARK   86  A    between atoms: _211  and  _213
REMARK   87  A    between atoms: _213  and  _214
REMARK   88  A    between atoms: _213  and  _216
REMARK   89  A    between atoms: _216  and  _217
REMARK   90  A    between atoms: _220  and  _222
REMARK   91  A    between atoms: _222  and  _223
REMARK   92  A    between atoms: _225  and  _227
REMARK   93  A    between atoms: _227  and  _228
REMARK   94  A    between atoms: _231  and  _233
REMARK   95  A    between atoms: _233  and  _234
REMARK   96  A    between atoms: _233  and  _236
REMARK   97  A    between atoms: _236  and  _237
REMARK   98  A    between atoms: _239  and  _241
REMARK   99  A    between atoms: _241  and  _242
REMARK  100  A    between atoms: _241  and  _244
REMARK  101  A    between atoms: _244  and  _245
REMARK  102  A    between atoms: _250  and  _252
REMARK  103  A    between atoms: _252  and  _253
REMARK  104  A    between atoms: _252  and  _255
REMARK  105  A    between atoms: _255  and  _256
REMARK  106  A    between atoms: _258  and  _260
REMARK  107  A    between atoms: _260  and  _261
REMARK  108  A    between atoms: _264  and  _266
REMARK  109  A    between atoms: _266  and  _267
REMARK  110  A    between atoms: _270  and  _272
REMARK  111  A    between atoms: _272  and  _273
REMARK  112  A    between atoms: _272  and  _275
REMARK  113  A    between atoms: _275  and  _276
REMARK  114  A    between atoms: _276  and  _277
REMARK  115  A    between atoms: _277  and  _278
REMARK  116  A    between atoms: _287  and  _289
REMARK  117  A    between atoms: _289  and  _290
REMARK  118  A    between atoms: _289  and  _292
REMARK  119  A    between atoms: _292  and  _293
REMARK  120  A    between atoms: _298  and  _299
REMARK  121  A    between atoms: _301  and  _303
REMARK  122  A    between atoms: _303  and  _304
REMARK  123  A    between atoms: _303  and  _306
REMARK  124  A    between atoms: _306  and  _307
REMARK  125  A    between atoms: _312  and  _314
REMARK  126  A    between atoms: _314  and  _315
REMARK  127  A    between atoms: _314  and  _317
REMARK  128  A    between atoms: _317  and  _318
REMARK  129  A    between atoms: _318  and  _319
REMARK  130  A    between atoms: _325  and  _326
REMARK  131  A    between atoms: _331  and  _333
REMARK  132  A    between atoms: _333  and  _334
REMARK  133  A    between atoms: _333  and  _336
REMARK  134  A    between atoms: _336  and  _337
REMARK  135  A    between atoms: _342  and  _344
REMARK  136  A    between atoms: _344  and  _345
REMARK  137  A    between atoms: _344  and  _347
REMARK  138  A    between atoms: _347  and  _348
REMARK  139  A    between atoms: _348  and  _349
REMARK  140  A    between atoms: _352  and  _354
REMARK  141  A    between atoms: _354  and  _355
REMARK  142  A    between atoms: _354  and  _357
REMARK  143  A    between atoms: _357  and  _358
REMARK  144  A    between atoms: _360  and  _362
REMARK  145  A    between atoms: _362  and  _363
REMARK  146  A    between atoms: _362  and  _365
REMARK  147  A    between atoms: _365  and  _366
REMARK  148  A    between atoms: _369  and  _371
REMARK  149  A    between atoms: _371  and  _372
REMARK  150  A    between atoms: _371  and  _374
REMARK  151  A    between atoms: _374  and  _375
REMARK  152  A    between atoms: _377  and  _379
REMARK  153  A    between atoms: _379  and  _380
REMARK  154  A    between atoms: _379  and  _382
REMARK  155  A    between atoms: _382  and  _383
REMARK  156  A    between atoms: _386  and  _388
REMARK  157  A    between atoms: _388  and  _389
REMARK  158  A    between atoms: _388  and  _391
REMARK  159  A    between atoms: _391  and  _392
REMARK  160  A    between atoms: _395  and  _397
REMARK  161  A    between atoms: _397  and  _398
REMARK  162  A    between atoms: _397  and  _400
REMARK  163  A    between atoms: _400  and  _401
REMARK  164  A    between atoms: _401  and  _402
REMARK  165  A    between atoms: _407  and  _409
REMARK  166  A    between atoms: _409  and  _410
REMARK  167  A    between atoms: _409  and  _412
REMARK  168  A    between atoms: _412  and  _413
REMARK  169  A    between atoms: _419  and  _421
REMARK  170  A    between atoms: _421  and  _422
REMARK  171  A    between atoms: _421  and  _424
REMARK  172  A    between atoms: _426  and  _428
REMARK  173  A    between atoms: _428  and  _429
REMARK  174  A    between atoms: _432  and  _434
REMARK  175  A    between atoms: _434  and  _435
REMARK  176  A    between atoms: _437  and  _439
REMARK  177  A    between atoms: _439  and  _440
REMARK  178  A    between atoms: _442  and  _444
REMARK  179  A    between atoms: _444  and  _445
REMARK  180  A    between atoms: _444  and  _447
REMARK  181  A    between atoms: _447  and  _448
REMARK  182  A    between atoms: _451  and  _453
REMARK  183  A    between atoms: _453  and  _454
REMARK  184  A    between atoms: _456  and  _458
REMARK  185  A    between atoms: _458  and  _459
REMARK  186  A    between atoms: _458  and  _461
REMARK  187  A    between atoms: _461  and  _462
REMARK  188  A    between atoms: _468  and  _470
REMARK  189  A    between atoms: _470  and  _471
REMARK  190  A    between atoms: _470  and  _473
REMARK  191  A    between atoms: _476  and  _478
REMARK  192  A    between atoms: _478  and  _479
REMARK  193  A    between atoms: _478  and  _481
REMARK  194  A    between atoms: _481  and  _482
REMARK  195  A    between atoms: _485  and  _487
REMARK  196  A    between atoms: _487  and  _488
REMARK  197  A    between atoms: _490  and  _492
REMARK  198  A    between atoms: _492  and  _493
REMARK  199  A    between atoms: _492  and  _495
REMARK  200  A    between atoms: _495  and  _496
REMARK  201  A    between atoms: _496  and  _497
REMARK  202  A    between atoms: _497  and  MG_734
REMARK  203  A    between atoms: _499  and  _501
REMARK  204  A    between atoms: _501  and  _502
REMARK  205  A    between atoms: _504  and  _506
REMARK  206  A    between atoms: _506  and  _507
REMARK  207  A    between atoms: _506  and  _509
REMARK  208  A    between atoms: _509  and  _510
REMARK  209  A    between atoms: _512  and  _514
REMARK  210  A    between atoms: _514  and  _515
REMARK  211  A    between atoms: _518  and  _520
REMARK  212  A    between atoms: _520  and  _521
REMARK  213  A    between atoms: _520  and  _523
REMARK  214  A    between atoms: _523  and  _524
REMARK  215  A    between atoms: _529  and  _531
REMARK  216  A    between atoms: _531  and  _532
REMARK  217  A    between atoms: _531  and  _534
REMARK  218  A    between atoms: _534  and  _535
REMARK  219  A    between atoms: _540  and  _541
REMARK  220  A    between atoms: _543  and  _545
REMARK  221  A    between atoms: _545  and  _546
REMARK  222  A    between atoms: _545  and  _548
REMARK  223  A    between atoms: _548  and  _549
REMARK  224  A    between atoms: _552  and  _554
REMARK  225  A    between atoms: _554  and  _555
REMARK  226  A    between atoms: _554  and  _557
REMARK  227  A    between atoms: _557  and  _558
REMARK  228  A    between atoms: _558  and  _559
REMARK  229  A    between atoms: _561  and  _563
REMARK  230  A    between atoms: _563  and  _564
REMARK  231  A    between atoms: _563  and  _566
REMARK  232  A    between atoms: _566  and  _567
REMARK  233  A    between atoms: _572  and  _574
REMARK  234  A    between atoms: _574  and  _575
REMARK  235  A    between atoms: _574  and  _577
REMARK  236  A    between atoms: _577  and  _578
REMARK  237  A    between atoms: _583  and  _585
REMARK  238  A    between atoms: _585  and  _586
REMARK  239  A    between atoms: _588  and  _590
REMARK  240  A    between atoms: _590  and  _591
REMARK  241  A    between atoms: _590  and  _593
REMARK  242  A    between atoms: _591  and  _592
REMARK  243  A    between atoms: _591  and  _597
REMARK  244  A    between atoms: _592  and  MG_734
REMARK  245  A    between atoms: _593  and  _594
REMARK  246  A    between atoms: _597  and  _599
REMARK  247  A    between atoms: _599  and  _600
REMARK  248  A    between atoms: _599  and  _602
REMARK  249  A    between atoms: _602  and  _603
REMARK  250  A    between atoms: _608  and  _609
REMARK  251  A    between atoms: _611  and  _613
REMARK  252  A    between atoms: _613  and  _614
REMARK  253  A    between atoms: _616  and  _618
REMARK  254  A    between atoms: _618  and  _619
REMARK  255  A    between atoms: _622  and  _624
REMARK  256  A    between atoms: _624  and  _625
REMARK  257  A    between atoms: _624  and  _627
REMARK  258  A    between atoms: _627  and  _628
REMARK  259  A    between atoms: _631  and  _633
REMARK  260  A    between atoms: _633  and  _634
REMARK  261  A    between atoms: _633  and  _636
REMARK  262  A    between atoms: _636  and  _637
REMARK  263  A    between atoms: _637  and  _638
REMARK  264  A    between atoms: _638  and  _639
REMARK  265  A    between atoms: _648  and  _650
REMARK  266  A    between atoms: _650  and  _651
REMARK  267  A    between atoms: _650  and  _653
REMARK  268  A    between atoms: _653  and  _654
REMARK  269  A    between atoms: _664  and  _666
REMARK  270  A    between atoms: _666  and  _667
REMARK  271  A    between atoms: _666  and  _669
REMARK  272  A    between atoms: _669  and  _670
REMARK  273  A    between atoms: _676  and  _678
REMARK  274  A    between atoms: _678  and  _679
REMARK  275  A    between atoms: _681  and  _683
REMARK  276  A    between atoms: _683  and  _684
REMARK  277  A    between atoms: _683  and  _686
REMARK  278  A    between atoms: _686  and  _687
REMARK  279  A    between atoms: _690  and  _692
REMARK  280  A    between atoms: _692  and  _693
REMARK  281  A    between atoms: _692  and  _695
REMARK  282  A    between atoms: _698  and  _700
REMARK  283  A    between atoms: _700  and  _701
REMARK  284  A    between atoms: _700  and  _703
REMARK  285  A    between atoms: _703  and  _704
REMARK  286  A    between atoms: _710  and  _712
REMARK  287  A    between atoms: _712  and  _713
REMARK  288  A    between atoms: _712  and  _715
REMARK  289  A    between atoms: _715  and  _716
REMARK  290  A    between atoms: _719  and  _721
REMARK  291  A    between atoms: _721  and  _722
REMARK  292  A    between atoms: _721  and  _724
REMARK  293  A    between atoms: _728  and  _729
REMARK                            x       y       z     vdW  Elec       q    Type
REMARK                         _______ _______ _______ _____ _____    ______ ____
ROOT
ATOM      1  CA  ALA A   5      74.212  51.858 154.217  0.00  0.00    +0.149 C 
ATOM      2  CB  ALA A   5      73.654  52.918 155.147  0.00  0.00    +0.031 C 
ENDROOT
BRANCH   1   3
ATOM      3  C   ALA A   5      74.274  50.568 154.976  0.00  0.00    +0.241 C 
ATOM      4  O   ALA A   5      75.334  50.228 155.475  0.00  0.00    -0.273 OA
ATOM      5  N   GLY A   6      73.176  49.841 155.129  0.00  0.00    -0.295 N 
ATOM      6  H   GLY A   6      72.272  50.204 154.765  0.00  0.00    +0.150 HD
BRANCH   5   7
ATOM      7  CA  GLY A   6      73.206  48.539 155.798  0.00  0.00    +0.176 C 
BRANCH   7   8
ATOM      8  C   GLY A   6      74.082  47.549 155.006  0.00  0.00    +0.243 C 
ATOM      9  O   GLY A   6      74.887  46.795 155.554  0.00  0.00    -0.273 OA
ATOM     10  N   THR A   7      73.900  47.506 153.681  0.00  0.00    -0.295 N 
ATOM     11  H   THR A   7      73.190  48.123 153.237  0.00  0.00    +0.150 HD
BRANCH  10  12
ATOM     12  CA  THR A   7      74.697  46.593 152.847  0.00  0.00    +0.176 C 
BRANCH  12  13
ATOM     13  C   THR A   7      76.169  47.029 152.977  0.00  0.00    +0.243 C 
ATOM     14  O   THR A   7      77.037  46.171 153.160  0.00  0.00    -0.273 OA
ATOM     15  N   GLY A   8      76.439  48.332 152.909  0.00  0.00    -0.295 N 
ATOM     16  H   GLY A   8      75.670  49.027 152.826  0.00  0.00    +0.150 HD
BRANCH  15  17
ATOM     17  CA  GLY A   8      77.863  48.777 152.954  0.00  0.00    +0.176 C 
BRANCH  17  18
ATOM     18  C   GLY A   8      78.494  48.383 154.306  0.00  0.00    +0.243 C 
ATOM     19  N   ASN A   9      77.746  48.492 155.414  0.00  0.00    -0.297 N 
ATOM     20  H   ASN A   9      76.759  48.810 155.340  0.00  0.00    +0.150 HD
ATOM     21  O   GLY A   8      79.660  47.961 154.338  0.00  0.00    -0.273 OA
BRANCH  19  22
ATOM     22  CA  ASN A   9      78.309  48.166 156.729  0.00  0.00    +0.158 C 
BRANCH  22  23
ATOM     23  C   ASN A   9      78.747  46.680 156.742  0.00  0.00    +0.241 C 
ATOM     24  O   ASN A   9      79.543  46.260 157.594  0.00  0.00    -0.273 OA
ATOM     25  N   ALA A  10      78.183  45.871 155.866  0.00  0.00    -0.298 N 
ATOM     26  H   ALA A  10      77.508  46.274 155.186  0.00  0.00    +0.150 HD
BRANCH  25  27
ATOM     27  CA  ALA A  10      78.462  44.419 155.802  0.00  0.00    +0.137 C 
ATOM     28  CB  ALA A  10      77.154  43.635 155.514  0.00  0.00    +0.030 C 
BRANCH  27  29
ATOM     29  C   ALA A  10      79.515  43.998 154.789  0.00  0.00    +0.227 C 
ATOM     30  O   ALA A  10      79.810  42.825 154.664  0.00  0.00    -0.286 OA
ENDBRANCH  27  29
ENDBRANCH  25  27
ENDBRANCH  22  23
BRANCH  22  31
ATOM     31  CB  ASN A   9      77.322  48.425 157.889  0.00  0.00    +0.114 C 
BRANCH  31  32
ATOM     32  CG  ASN A   9      77.335  49.856 158.319  0.00  0.00    +0.222 C 
ATOM     33  ND2 ASN A   9      76.377  50.167 159.126  0.00  0.00    -0.329 N 
ATOM     34 HD21 ASN A   9      76.313  51.132 159.509  0.00  0.00    +0.145 HD
ATOM     35 HD22 ASN A   9      75.669  49.453 159.393  0.00  0.00    +0.145 HD
ATOM     36  OD1 ASN A   9      78.195  50.699 157.986  0.00  0.00    -0.275 OA
ENDBRANCH  31  32
ENDBRANCH  22  31
ENDBRANCH  19  22
ENDBRANCH  17  18
ENDBRANCH  15  17
ENDBRANCH  12  13
BRANCH  12  37
ATOM     37  CB  THR A   7      74.348  46.711 151.387  0.00  0.00    +0.137 C 
ATOM     38  CG2 THR A   7      75.106  45.830 150.495  0.00  0.00    +0.034 C 
BRANCH  37  39
ATOM     39  OG1 THR A   7      72.924  46.321 151.228  0.00  0.00    -0.382 OA
ATOM     40  HG1 THR A   7      72.669  46.390 150.274  0.00  0.00    +0.210 HD
ENDBRANCH  37  39
ENDBRANCH  12  37
ENDBRANCH  10  12
ENDBRANCH   7   8
ENDBRANCH   5   7
ENDBRANCH   1   3
BRANCH   1  42
ATOM     41  C   ALA A   4      73.712  50.931 152.078  0.00  0.00    +0.241 C 
ATOM     42  N   ALA A   5      73.304  51.682 153.081  0.00  0.00    -0.297 N 
ATOM     43  H   ALA A   5      72.368  52.135 153.067  0.00  0.00    +0.150 HD
ATOM     44  O   ALA A   4      74.819  50.324 152.091  0.00  0.00    -0.273 OA
BRANCH  41  45
ATOM     45  CA  ALA A   4      72.830  50.884 150.855  0.00  0.00    +0.149 C 
ATOM     46  CB  ALA A   4      73.163  52.148 149.961  0.00  0.00    +0.031 C 
BRANCH  45  49
ATOM     47  C   SER A   3      70.955  49.624 151.544  0.00  0.00    +0.243 C 
ATOM     48  O   SER A   3      71.611  48.608 151.789  0.00  0.00    -0.273 OA
ATOM     49  N   ALA A   4      71.406  50.776 151.120  0.00  0.00    -0.297 N 
ATOM     50  H   ALA A   4      70.768  51.585 150.978  0.00  0.00    +0.150 HD
BRANCH  47  51
ATOM     51  CA  SER A   3      69.426  49.581 151.651  0.00  0.00    +0.178 C 
BRANCH  51  54
ATOM     52  C   HIS A   2      69.529  48.784 154.008  0.00  0.00    +0.241 C 
ATOM     53  O   HIS A   2      70.600  49.386 154.293  0.00  0.00    -0.273 OA
ATOM     54  N   SER A   3      68.955  48.798 152.805  0.00  0.00    -0.295 N 
ATOM     55  H   SER A   3      68.108  48.210 152.671  0.00  0.00    +0.150 HD
BRANCH  52  56
ATOM     56  CA  HIS A   2      68.785  47.997 155.116  0.00  0.00    +0.155 C 
BRANCH  56  58
ATOM     57  C   LEU A   1      69.038  45.606 154.927  0.00  0.00    +0.238 C 
ATOM     58  N   HIS A   2      69.422  46.762 155.481  0.00  0.00    -0.297 N 
ATOM     59  H   HIS A   2      70.189  46.766 156.183  0.00  0.00    +0.150 HD
ATOM     60  O   LEU A   1      68.283  45.495 153.969  0.00  0.00    -0.274 OA
BRANCH  57  61
ATOM     61  CA  LEU A   1      69.740  44.349 155.468  0.00  0.00    +0.145 C 
BRANCH  61  62
ATOM     62  N   LEU A   1      69.122  43.106 155.037  0.00  0.00    -0.238 NA
ATOM     63  H   LEU A   1      69.039  42.902 154.021  0.00  0.00    +0.142 HD
ENDBRANCH  61  62
BRANCH  61  64
ATOM     64  CB  LEU A   1      71.214  44.379 154.976  0.00  0.00    +0.026 C 
BRANCH  64  65
ATOM     65  CG  LEU A   1      72.078  43.200 155.303  0.00  0.00    +0.002 C 
ATOM     66  CD2 LEU A   1      72.300  43.019 156.791  0.00  0.00    +0.000 C 
ATOM     67  CD1 LEU A   1      73.455  43.397 154.612  0.00  0.00    +0.000 C 
ENDBRANCH  64  65
ENDBRANCH  61  64
ENDBRANCH  57  61
ENDBRANCH  56  58
BRANCH  56  68
ATOM     68  CB  HIS A   2      68.607  48.932 156.343  0.00  0.00    +0.076 C 
BRANCH  68  69
ATOM     69  CG  HIS A   2      68.010  50.257 155.981  0.00  0.00    +0.082 A 
ATOM     70  CD2 HIS A   2      68.502  51.518 156.041  0.00  0.00    +0.115 A 
ATOM     71  NE2 HIS A   2      67.509  52.355 155.583  0.00  0.00    -0.221 NA
ATOM     72  CE1 HIS A   2      66.439  51.638 155.274  0.00  0.00    +0.199 A 
ATOM     73  ND1 HIS A   2      66.723  50.355 155.469  0.00  0.00    -0.227 NA
ENDBRANCH  68  69
ENDBRANCH  56  68
ENDBRANCH  52  56
ENDBRANCH  51  54
BRANCH  51  74
ATOM     74  CB  SER A   3      68.831  50.963 151.810  0.00  0.00    +0.166 C 
BRANCH  74  75
ATOM     75  OG  SER A   3      68.919  51.713 150.603  0.00  0.00    -0.380 OA
ATOM     76  H   SER A   3      68.522  52.609 150.743  0.00  0.00    +0.211 HD
ENDBRANCH  74  75
ENDBRANCH  51  74
ENDBRANCH  47  51
ENDBRANCH  45  49
ENDBRANCH  41  45
ENDBRANCH   1  42
TORSDOF 30
REMARK  Name = ../refined-set-2016/3f6e/3f6e_pocket.pdb
REMARK  293 active torsions:
REMARK  status: ('A' for Active; 'I' for Inactive)
REMARK    1  A    between atoms: _1  and  _3
REMARK    2  A    between atoms: _3  and  _4
REMARK    3  A    between atoms: _3  and  _6
REMARK    4  A    between atoms: _6  and  _7
REMARK    5  A    between atoms: _13  and  _14
REMARK    6  A    between atoms: _19  and  _21
REMARK    7  A    between atoms: _21  and  _22
REMARK    8  A    between atoms: _24  and  _26
REMARK    9  A    between atoms: _26  and  _27
REMARK   10  A    between atoms: _26  and  _29
REMARK   11  A    between atoms: _29  and  _30
REMARK   12  A    between atoms: _32  and  _34
REMARK   13  A    between atoms: _34  and  _35
REMARK   14  A    between atoms: _34  and  _37
REMARK   15  A    between atoms: _37  and  _38
REMARK   16  A    between atoms: _43  and  _45
REMARK   17  A    between atoms: _45  and  _46
REMARK   18  A    between atoms: _45  and  _48
REMARK   19  A    between atoms: _48  and  _49
REMARK   20  A    between atoms: _49  and  _50
REMARK   21  A    between atoms: _53  and  _55
REMARK   22  A    between atoms: _55  and  _56
REMARK   23  A    between atoms: _55  and  _58
REMARK   24  A    between atoms: _58  and  _59
REMARK   25  A    between atoms: _62  and  _64
REMARK   26  A    between atoms: _64  and  _65
REMARK   27  A    between atoms: _64  and  _67
REMARK   28  A    between atoms: _67  and  _68
REMARK   29  A    between atoms: _71  and  _73
REMARK   30  A    between atoms: _73  and  _74
REMARK   31  A    between atoms: _77  and  _79
REMARK   32  A    between atoms: _79  and  _80
REMARK   33  A    between atoms: _79  and  _82
REMARK   34  A    between atoms: _82  and  _83
REMARK   35  A    between atoms: _86  and  _88
REMARK   36  A    between atoms: _88  and  _89
REMARK   37  A    between atoms: _88  and  _91
REMARK   38  A    between atoms: _91  and  _92
REMARK   39  A    between atoms: _92  and  _93
REMARK   40  A    between atoms: _98  and  _100
REMARK   41  A    between atoms: _100  and  _101
REMARK   42  A    between atoms: _100  and  _103
REMARK   43  A    between atoms: _103  and  _104
REMARK   44  A    between atoms: _104  and  _105
REMARK   45  A    between atoms: _108  and  _110
REMARK   46  A    between atoms: _110  and  _111
REMARK   47  A    between atoms: _114  and  _116
REMARK   48  A    between atoms: _116  and  _117
REMARK   49  A    between atoms: _116  and  _119
REMARK   50  A    between atoms: _119  and  _120
REMARK   51  A    between atoms: _123  and  _125
REMARK   52  A    between atoms: _125  and  _126
REMARK   53  A    between atoms: _125  and  _128
REMARK   54  A    between atoms: _128  and  _129
REMARK   55  A    between atoms: _134  and  _136
REMARK   56  A    between atoms: _136  and  _137
REMARK   57  A    between atoms: _136  and  _139
REMARK   58  A    between atoms: _139  and  _140
REMARK   59  A    between atoms: _142  and  _144
REMARK   60  A    between atoms: _144  and  _145
REMARK   61  A    between atoms: _148  and  _150
REMARK   62  A    between atoms: _150  and  _151
REMARK   63  A    between atoms: _154  and  _156
REMARK   64  A    between atoms: _156  and  _157
REMARK   65  A    between atoms: _159  and  _161
REMARK   66  A    between atoms: _161  and  _162
REMARK   67  A    between atoms: _161  and  _164
REMARK   68  A    between atoms: _164  and  _165
REMARK   69  A    between atoms: _168  and  _170
REMARK   70  A    between atoms: _170  and  _171
REMARK   71  A    between atoms: _173  and  _175
REMARK   72  A    between atoms: _175  and  _176
REMARK   73  A    between atoms: _175  and  _178
REMARK   74  A    between atoms: _178  and  _179
REMARK   75  A    between atoms: _184  and  _186
REMARK   76  A    between atoms: _186  and  _187
REMARK   77  A    between atoms: _190  and  _192
REMARK   78  A    between atoms: _192  and  _193
REMARK   79  A    between atoms: _192  and  _195
REMARK   80  A    between atoms: _195  and  _196
REMARK   81  A    between atoms: _196  and  _197
REMARK   82  A    between atoms: _202  and  _204
REMARK   83  A    between atoms: _204  and  _205
REMARK   84  A    between atoms: _204  and  _207
REMARK   85  A    between atoms: _207  and  _208
REMARK   86  A    between atoms: _211  and  _213
REMARK   87  A    between atoms: _213  and  _214
REMARK   88  A    between atoms: _213  and  _216
REMARK   89  A    between atoms: _216  and  _217
REMARK   90  A    between atoms: _220  and  _222
REMARK   91  A    between atoms: _222  and  _223
REMARK   92  A    between atoms: _225  and  _227
REMARK   93  A    between atoms: _227  and  _228
REMARK   94  A    between atoms: _231  and  _233
REMARK   95  A    between atoms: _233  and  _234
REMARK   96  A    between atoms: _233  and  _236
REMARK   97  A    between atoms: _236  and  _237
REMARK   98  A    between atoms: _239  and  _241
REMARK   99  A    between atoms: _241  and  _242
REMARK  100  A    between atoms: _241  and  _244
REMARK  101  A    between atoms: _244  and  _245
REMARK  102  A    between atoms: _250  and  _252
REMARK  103  A    between atoms: _252  and  _253
REMARK  104  A    between atoms: _252  and  _255
REMARK  105  A    between atoms: _255  and  _256
REMARK  106  A    between atoms: _258  and  _260
REMARK  107  A    between atoms: _260  and  _261
REMARK  108  A    between atoms: _264  and  _266
REMARK  109  A    between atoms: _266  and  _267
REMARK  110  A    between atoms: _270  and  _272
REMARK  111  A    between atoms: _272  and  _273
REMARK  112  A    between atoms: _272  and  _275
REMARK  113  A    between atoms: _275  and  _276
REMARK  114  A    between atoms: _276  and  _277
REMARK  115  A    between atoms: _277  and  _278
REMARK  116  A    between atoms: _287  and  _289
REMARK  117  A    between atoms: _289  and  _290
REMARK  118  A    between atoms: _289  and  _292
REMARK  119  A    between atoms: _292  and  _293
REMARK  120  A    between atoms: _298  and  _299
REMARK  121  A    between atoms: _301  and  _303
REMARK  122  A    between atoms: _303  and  _304
REMARK  123  A    between atoms: _303  and  _306
REMARK  124  A    between atoms: _306  and  _307
REMARK  125  A    between atoms: _312  and  _314
REMARK  126  A    between atoms: _314  and  _315
REMARK  127  A    between atoms: _314  and  _317
REMARK  128  A    between atoms: _317  and  _318
REMARK  129  A    between atoms: _318  and  _319
REMARK  130  A    between atoms: _325  and  _326
REMARK  131  A    between atoms: _331  and  _333
REMARK  132  A    between atoms: _333  and  _334
REMARK  133  A    between atoms: _333  and  _336
REMARK  134  A    between atoms: _336  and  _337
REMARK  135  A    between atoms: _342  and  _344
REMARK  136  A    between atoms: _344  and  _345
REMARK  137  A    between atoms: _344  and  _347
REMARK  138  A    between atoms: _347  and  _348
REMARK  139  A    between atoms: _348  and  _349
REMARK  140  A    between atoms: _352  and  _354
REMARK  141  A    between atoms: _354  and  _355
REMARK  142  A    between atoms: _354  and  _357
REMARK  143  A    between atoms: _357  and  _358
REMARK  144  A    between atoms: _360  and  _362
REMARK  145  A    between atoms: _362  and  _363
REMARK  146  A    between atoms: _362  and  _365
REMARK  147  A    between atoms: _365  and  _366
REMARK  148  A    between atoms: _369  and  _371
REMARK  149  A    between atoms: _371  and  _372
REMARK  150  A    between atoms: _371  and  _374
REMARK  151  A    between atoms: _374  and  _375
REMARK  152  A    between atoms: _377  and  _379
REMARK  153  A    between atoms: _379  and  _380
REMARK  154  A    between atoms: _379  and  _382
REMARK  155  A    between atoms: _382  and  _383
REMARK  156  A    between atoms: _386  and  _388
REMARK  157  A    between atoms: _388  and  _389
REMARK  158  A    between atoms: _388  and  _391
REMARK  159  A    between atoms: _391  and  _392
REMARK  160  A    between atoms: _395  and  _397
REMARK  161  A    between atoms: _397  and  _398
REMARK  162  A    between atoms: _397  and  _400
REMARK  163  A    between atoms: _400  and  _401
REMARK  164  A    between atoms: _401  and  _402
REMARK  165  A    between atoms: _407  and  _409
REMARK  166  A    between atoms: _409  and  _410
REMARK  167  A    between atoms: _409  and  _412
REMARK  168  A    between atoms: _412  and  _413
REMARK  169  A    between atoms: _419  and  _421
REMARK  170  A    between atoms: _421  and  _422
REMARK  171  A    between atoms: _421  and  _424
REMARK  172  A    between atoms: _426  and  _428
REMARK  173  A    between atoms: _428  and  _429
REMARK  174  A    between atoms: _432  and  _434
REMARK  175  A    between atoms: _434  and  _435
REMARK  176  A    between atoms: _437  and  _439
REMARK  177  A    between atoms: _439  and  _440
REMARK  178  A    between atoms: _442  and  _444
REMARK  179  A    between atoms: _444  and  _445
REMARK  180  A    between atoms: _444  and  _447
REMARK  181  A    between atoms: _447  and  _448
REMARK  182  A    between atoms: _451  and  _453
REMARK  183  A    between atoms: _453  and  _454
REMARK  184  A    between atoms: _456  and  _458
REMARK  185  A    between atoms: _458  and  _459
REMARK  186  A    between atoms: _458  and  _461
REMARK  187  A    between atoms: _461  and  _462
REMARK  188  A    between atoms: _468  and  _470
REMARK  189  A    between atoms: _470  and  _471
REMARK  190  A    between atoms: _470  and  _473
REMARK  191  A    between atoms: _476  and  _478
REMARK  192  A    between atoms: _478  and  _479
REMARK  193  A    between atoms: _478  and  _481
REMARK  194  A    between atoms: _481  and  _482
REMARK  195  A    between atoms: _485  and  _487
REMARK  196  A    between atoms: _487  and  _488
REMARK  197  A    between atoms: _490  and  _492
REMARK  198  A    between atoms: _492  and  _493
REMARK  199  A    between atoms: _492  and  _495
REMARK  200  A    between atoms: _495  and  _496
REMARK  201  A    between atoms: _496  and  _497
REMARK  202  A    between atoms: _497  and  MG_734
REMARK  203  A    between atoms: _499  and  _501
REMARK  204  A    between atoms: _501  and  _502
REMARK  205  A    between atoms: _504  and  _506
REMARK  206  A    between atoms: _506  and  _507
REMARK  207  A    between atoms: _506  and  _509
REMARK  208  A    between atoms: _509  and  _510
REMARK  209  A    between atoms: _512  and  _514
REMARK  210  A    between atoms: _514  and  _515
REMARK  211  A    between atoms: _518  and  _520
REMARK  212  A    between atoms: _520  and  _521
REMARK  213  A    between atoms: _520  and  _523
REMARK  214  A    between atoms: _523  and  _524
REMARK  215  A    between atoms: _529  and  _531
REMARK  216  A    between atoms: _531  and  _532
REMARK  217  A    between atoms: _531  and  _534
REMARK  218  A    between atoms: _534  and  _535
REMARK  219  A    between atoms: _540  and  _541
REMARK  220  A    between atoms: _543  and  _545
REMARK  221  A    between atoms: _545  and  _546
REMARK  222  A    between atoms: _545  and  _548
REMARK  223  A    between atoms: _548  and  _549
REMARK  224  A    between atoms: _552  and  _554
REMARK  225  A    between atoms: _554  and  _555
REMARK  226  A    between atoms: _554  and  _557
REMARK  227  A    between atoms: _557  and  _558
REMARK  228  A    between atoms: _558  and  _559
REMARK  229  A    between atoms: _561  and  _563
REMARK  230  A    between atoms: _563  and  _564
REMARK  231  A    between atoms: _563  and  _566
REMARK  232  A    between atoms: _566  and  _567
REMARK  233  A    between atoms: _572  and  _574
REMARK  234  A    between atoms: _574  and  _575
REMARK  235  A    between atoms: _574  and  _577
REMARK  236  A    between atoms: _577  and  _578
REMARK  237  A    between atoms: _583  and  _585
REMARK  238  A    between atoms: _585  and  _586
REMARK  239  A    between atoms: _588  and  _590
REMARK  240  A    between atoms: _590  and  _591
REMARK  241  A    between atoms: _590  and  _593
REMARK  242  A    between atoms: _591  and  _592
REMARK  243  A    between atoms: _591  and  _597
REMARK  244  A    between atoms: _592  and  MG_734
REMARK  245  A    between atoms: _593  and  _594
REMARK  246  A    between atoms: _597  and  _599
REMARK  247  A    between atoms: _599  and  _600
REMARK  248  A    between atoms: _599  and  _602
REMARK  249  A    between atoms: _602  and  _603
REMARK  250  A    between atoms: _608  and  _609
REMARK  251  A    between atoms: _611  and  _613
REMARK  252  A    between atoms: _613  and  _614
REMARK  253  A    between atoms: _616  and  _618
REMARK  254  A    between atoms: _618  and  _619
REMARK  255  A    between atoms: _622  and  _624
REMARK  256  A    between atoms: _624  and  _625
REMARK  257  A    between atoms: _624  and  _627
REMARK  258  A    between atoms: _627  and  _628
REMARK  259  A    between atoms: _631  and  _633
REMARK  260  A    between atoms: _633  and  _634
REMARK  261  A    between atoms: _633  and  _636
REMARK  262  A    between atoms: _636  and  _637
REMARK  263  A    between atoms: _637  and  _638
REMARK  264  A    between atoms: _638  and  _639
REMARK  265  A    between atoms: _648  and  _650
REMARK  266  A    between atoms: _650  and  _651
REMARK  267  A    between atoms: _650  and  _653
REMARK  268  A    between atoms: _653  and  _654
REMARK  269  A    between atoms: _664  and  _666
REMARK  270  A    between atoms: _666  and  _667
REMARK  271  A    between atoms: _666  and  _669
REMARK  272  A    between atoms: _669  and  _670
REMARK  273  A    between atoms: _676  and  _678
REMARK  274  A    between atoms: _678  and  _679
REMARK  275  A    between atoms: _681  and  _683
REMARK  276  A    between atoms: _683  and  _684
REMARK  277  A    between atoms: _683  and  _686
REMARK  278  A    between atoms: _686  and  _687
REMARK  279  A    between atoms: _690  and  _692
REMARK  280  A    between atoms: _692  and  _693
REMARK  281  A    between atoms: _692  and  _695
REMARK  282  A    between atoms: _698  and  _700
REMARK  283  A    between atoms: _700  and  _701
REMARK  284  A    between atoms: _700  and  _703
REMARK  285  A    between atoms: _703  and  _704
REMARK  286  A    between atoms: _710  and  _712
REMARK  287  A    between atoms: _712  and  _713
REMARK  288  A    between atoms: _712  and  _715
REMARK  289  A    between atoms: _715  and  _716
REMARK  290  A    between atoms: _719  and  _721
REMARK  291  A    between atoms: _721  and  _722
REMARK  292  A    between atoms: _721  and  _724
REMARK  293  A    between atoms: _728  and  _729
REMARK                            x       y       z     vdW  Elec       q    Type
REMARK                         _______ _______ _______ _____ _____    ______ ____
ROOT
ATOM      1  CB  GLN A   1      63.330  54.041 147.647  0.00  0.00    +0.035 C 
ENDROOT
BRANCH   1   2
ATOM      2  CA  GLN A   1      62.896  52.601 148.033  0.00  0.00    +0.134 C 
BRANCH   2   3
ATOM      3  N   GLN A   1      64.051  51.678 148.023  0.00  0.00    -0.239 NA
ATOM      4  H   GLN A   1      64.977  52.017 147.694  0.00  0.00    +0.142 HD
ENDBRANCH   2   3
BRANCH   2   5
ATOM      5  C   GLN A   1      61.755  52.098 147.171  0.00  0.00    +0.224 C 
ATOM      6  O   GLN A   1      61.912  51.230 146.311  0.00  0.00    -0.287 OA
ENDBRANCH   2   5
ENDBRANCH   1   2
BRANCH   1   7
ATOM      7  CG  GLN A   1      63.562  54.985 148.815  0.00  0.00    +0.087 C 
BRANCH   7   8
ATOM      8  CD  GLN A   1      62.315  55.578 149.371  0.00  0.00    +0.219 C 
ATOM      9  NE2 GLN A   1      62.480  56.550 150.245  0.00  0.00    -0.329 N 
ATOM     10 HE21 GLN A   1      61.656  56.957 150.731  0.00  0.00    +0.145 HD
ATOM     11 HE22 GLN A   1      63.434  56.910 150.449  0.00  0.00    +0.145 HD
ATOM     12  OE1 GLN A   1      61.202  55.109 149.088  0.00  0.00    -0.275 OA
ENDBRANCH   7   8
ENDBRANCH   1   7
TORSDOF 5
REMARK  Name = ../refined-set-2016/3f6e/3f6e_pocket.pdb
REMARK  293 active torsions:
REMARK  status: ('A' for Active; 'I' for Inactive)
REMARK    1  A    between atoms: _1  and  _3
REMARK    2  A    between atoms: _3  and  _4
REMARK    3  A    between atoms: _3  and  _6
REMARK    4  A    between atoms: _6  and  _7
REMARK    5  A    between atoms: _13  and  _14
REMARK    6  A    between atoms: _19  and  _21
REMARK    7  A    between atoms: _21  and  _22
REMARK    8  A    between atoms: _24  and  _26
REMARK    9  A    between atoms: _26  and  _27
REMARK   10  A    between atoms: _26  and  _29
REMARK   11  A    between atoms: _29  and  _30
REMARK   12  A    between atoms: _32  and  _34
REMARK   13  A    between atoms: _34  and  _35
REMARK   14  A    between atoms: _34  and  _37
REMARK   15  A    between atoms: _37  and  _38
REMARK   16  A    between atoms: _43  and  _45
REMARK   17  A    between atoms: _45  and  _46
REMARK   18  A    between atoms: _45  and  _48
REMARK   19  A    between atoms: _48  and  _49
REMARK   20  A    between atoms: _49  and  _50
REMARK   21  A    between atoms: _53  and  _55
REMARK   22  A    between atoms: _55  and  _56
REMARK   23  A    between atoms: _55  and  _58
REMARK   24  A    between atoms: _58  and  _59
REMARK   25  A    between atoms: _62  and  _64
REMARK   26  A    between atoms: _64  and  _65
REMARK   27  A    between atoms: _64  and  _67
REMARK   28  A    between atoms: _67  and  _68
REMARK   29  A    between atoms: _71  and  _73
REMARK   30  A    between atoms: _73  and  _74
REMARK   31  A    between atoms: _77  and  _79
REMARK   32  A    between atoms: _79  and  _80
REMARK   33  A    between atoms: _79  and  _82
REMARK   34  A    between atoms: _82  and  _83
REMARK   35  A    between atoms: _86  and  _88
REMARK   36  A    between atoms: _88  and  _89
REMARK   37  A    between atoms: _88  and  _91
REMARK   38  A    between atoms: _91  and  _92
REMARK   39  A    between atoms: _92  and  _93
REMARK   40  A    between atoms: _98  and  _100
REMARK   41  A    between atoms: _100  and  _101
REMARK   42  A    between atoms: _100  and  _103
REMARK   43  A    between atoms: _103  and  _104
REMARK   44  A    between atoms: _104  and  _105
REMARK   45  A    between atoms: _108  and  _110
REMARK   46  A    between atoms: _110  and  _111
REMARK   47  A    between atoms: _114  and  _116
REMARK   48  A    between atoms: _116  and  _117
REMARK   49  A    between atoms: _116  and  _119
REMARK   50  A    between atoms: _119  and  _120
REMARK   51  A    between atoms: _123  and  _125
REMARK   52  A    between atoms: _125  and  _126
REMARK   53  A    between atoms: _125  and  _128
REMARK   54  A    between atoms: _128  and  _129
REMARK   55  A    between atoms: _134  and  _136
REMARK   56  A    between atoms: _136  and  _137
REMARK   57  A    between atoms: _136  and  _139
REMARK   58  A    between atoms: _139  and  _140
REMARK   59  A    between atoms: _142  and  _144
REMARK   60  A    between atoms: _144  and  _145
REMARK   61  A    between atoms: _148  and  _150
REMARK   62  A    between atoms: _150  and  _151
REMARK   63  A    between atoms: _154  and  _156
REMARK   64  A    between atoms: _156  and  _157
REMARK   65  A    between atoms: _159  and  _161
REMARK   66  A    between atoms: _161  and  _162
REMARK   67  A    between atoms: _161  and  _164
REMARK   68  A    between atoms: _164  and  _165
REMARK   69  A    between atoms: _168  and  _170
REMARK   70  A    between atoms: _170  and  _171
REMARK   71  A    between atoms: _173  and  _175
REMARK   72  A    between atoms: _175  and  _176
REMARK   73  A    between atoms: _175  and  _178
REMARK   74  A    between atoms: _178  and  _179
REMARK   75  A    between atoms: _184  and  _186
REMARK   76  A    between atoms: _186  and  _187
REMARK   77  A    between atoms: _190  and  _192
REMARK   78  A    between atoms: _192  and  _193
REMARK   79  A    between atoms: _192  and  _195
REMARK   80  A    between atoms: _195  and  _196
REMARK   81  A    between atoms: _196  and  _197
REMARK   82  A    between atoms: _202  and  _204
REMARK   83  A    between atoms: _204  and  _205
REMARK   84  A    between atoms: _204  and  _207
REMARK   85  A    between atoms: _207  and  _208
REMARK   86  A    between atoms: _211  and  _213
REMARK   87  A    between atoms: _213  and  _214
REMARK   88  A    between atoms: _213  and  _216
REMARK   89  A    between atoms: _216  and  _217
REMARK   90  A    between atoms: _220  and  _222
REMARK   91  A    between atoms: _222  and  _223
REMARK   92  A    between atoms: _225  and  _227
REMARK   93  A    between atoms: _227  and  _228
REMARK   94  A    between atoms: _231  and  _233
REMARK   95  A    between atoms: _233  and  _234
REMARK   96  A    between atoms: _233  and  _236
REMARK   97  A    between atoms: _236  and  _237
REMARK   98  A    between atoms: _239  and  _241
REMARK   99  A    between atoms: _241  and  _242
REMARK  100  A    between atoms: _241  and  _244
REMARK  101  A    between atoms: _244  and  _245
REMARK  102  A    between atoms: _250  and  _252
REMARK  103  A    between atoms: _252  and  _253
REMARK  104  A    between atoms: _252  and  _255
REMARK  105  A    between atoms: _255  and  _256
REMARK  106  A    between atoms: _258  and  _260
REMARK  107  A    between atoms: _260  and  _261
REMARK  108  A    between atoms: _264  and  _266
REMARK  109  A    between atoms: _266  and  _267
REMARK  110  A    between atoms: _270  and  _272
REMARK  111  A    between atoms: _272  and  _273
REMARK  112  A    between atoms: _272  and  _275
REMARK  113  A    between atoms: _275  and  _276
REMARK  114  A    between atoms: _276  and  _277
REMARK  115  A    between atoms: _277  and  _278
REMARK  116  A    between atoms: _287  and  _289
REMARK  117  A    between atoms: _289  and  _290
REMARK  118  A    between atoms: _289  and  _292
REMARK  119  A    between atoms: _292  and  _293
REMARK  120  A    between atoms: _298  and  _299
REMARK  121  A    between atoms: _301  and  _303
REMARK  122  A    between atoms: _303  and  _304
REMARK  123  A    between atoms: _303  and  _306
REMARK  124  A    between atoms: _306  and  _307
REMARK  125  A    between atoms: _312  and  _314
REMARK  126  A    between atoms: _314  and  _315
REMARK  127  A    between atoms: _314  and  _317
REMARK  128  A    between atoms: _317  and  _318
REMARK  129  A    between atoms: _318  and  _319
REMARK  130  A    between atoms: _325  and  _326
REMARK  131  A    between atoms: _331  and  _333
REMARK  132  A    between atoms: _333  and  _334
REMARK  133  A    between atoms: _333  and  _336
REMARK  134  A    between atoms: _336  and  _337
REMARK  135  A    between atoms: _342  and  _344
REMARK  136  A    between atoms: _344  and  _345
REMARK  137  A    between atoms: _344  and  _347
REMARK  138  A    between atoms: _347  and  _348
REMARK  139  A    between atoms: _348  and  _349
REMARK  140  A    between atoms: _352  and  _354
REMARK  141  A    between atoms: _354  and  _355
REMARK  142  A    between atoms: _354  and  _357
REMARK  143  A    between atoms: _357  and  _358
REMARK  144  A    between atoms: _360  and  _362
REMARK  145  A    between atoms: _362  and  _363
REMARK  146  A    between atoms: _362  and  _365
REMARK  147  A    between atoms: _365  and  _366
REMARK  148  A    between atoms: _369  and  _371
REMARK  149  A    between atoms: _371  and  _372
REMARK  150  A    between atoms: _371  and  _374
REMARK  151  A    between atoms: _374  and  _375
REMARK  152  A    between atoms: _377  and  _379
REMARK  153  A    between atoms: _379  and  _380
REMARK  154  A    between atoms: _379  and  _382
REMARK  155  A    between atoms: _382  and  _383
REMARK  156  A    between atoms: _386  and  _388
REMARK  157  A    between atoms: _388  and  _389
REMARK  158  A    between atoms: _388  and  _391
REMARK  159  A    between atoms: _391  and  _392
REMARK  160  A    between atoms: _395  and  _397
REMARK  161  A    between atoms: _397  and  _398
REMARK  162  A    between atoms: _397  and  _400
REMARK  163  A    between atoms: _400  and  _401
REMARK  164  A    between atoms: _401  and  _402
REMARK  165  A    between atoms: _407  and  _409
REMARK  166  A    between atoms: _409  and  _410
REMARK  167  A    between atoms: _409  and  _412
REMARK  168  A    between atoms: _412  and  _413
REMARK  169  A    between atoms: _419  and  _421
REMARK  170  A    between atoms: _421  and  _422
REMARK  171  A    between atoms: _421  and  _424
REMARK  172  A    between atoms: _426  and  _428
REMARK  173  A    between atoms: _428  and  _429
REMARK  174  A    between atoms: _432  and  _434
REMARK  175  A    between atoms: _434  and  _435
REMARK  176  A    between atoms: _437  and  _439
REMARK  177  A    between atoms: _439  and  _440
REMARK  178  A    between atoms: _442  and  _444
REMARK  179  A    between atoms: _444  and  _445
REMARK  180  A    between atoms: _444  and  _447
REMARK  181  A    between atoms: _447  and  _448
REMARK  182  A    between atoms: _451  and  _453
REMARK  183  A    between atoms: _453  and  _454
REMARK  184  A    between atoms: _456  and  _458
REMARK  185  A    between atoms: _458  and  _459
REMARK  186  A    between atoms: _458  and  _461
REMARK  187  A    between atoms: _461  and  _462
REMARK  188  A    between atoms: _468  and  _470
REMARK  189  A    between atoms: _470  and  _471
REMARK  190  A    between atoms: _470  and  _473
REMARK  191  A    between atoms: _476  and  _478
REMARK  192  A    between atoms: _478  and  _479
REMARK  193  A    between atoms: _478  and  _481
REMARK  194  A    between atoms: _481  and  _482
REMARK  195  A    between atoms: _485  and  _487
REMARK  196  A    between atoms: _487  and  _488
REMARK  197  A    between atoms: _490  and  _492
REMARK  198  A    between atoms: _492  and  _493
REMARK  199  A    between atoms: _492  and  _495
REMARK  200  A    between atoms: _495  and  _496
REMARK  201  A    between atoms: _496  and  _497
REMARK  202  A    between atoms: _497  and  MG_734
REMARK  203  A    between atoms: _499  and  _501
REMARK  204  A    between atoms: _501  and  _502
REMARK  205  A    between atoms: _504  and  _506
REMARK  206  A    between atoms: _506  and  _507
REMARK  207  A    between atoms: _506  and  _509
REMARK  208  A    between atoms: _509  and  _510
REMARK  209  A    between atoms: _512  and  _514
REMARK  210  A    between atoms: _514  and  _515
REMARK  211  A    between atoms: _518  and  _520
REMARK  212  A    between atoms: _520  and  _521
REMARK  213  A    between atoms: _520  and  _523
REMARK  214  A    between atoms: _523  and  _524
REMARK  215  A    between atoms: _529  and  _531
REMARK  216  A    between atoms: _531  and  _532
REMARK  217  A    between atoms: _531  and  _534
REMARK  218  A    between atoms: _534  and  _535
REMARK  219  A    between atoms: _540  and  _541
REMARK  220  A    between atoms: _543  and  _545
REMARK  221  A    between atoms: _545  and  _546
REMARK  222  A    between atoms: _545  and  _548
REMARK  223  A    between atoms: _548  and  _549
REMARK  224  A    between atoms: _552  and  _554
REMARK  225  A    between atoms: _554  and  _555
REMARK  226  A    between atoms: _554  and  _557
REMARK  227  A    between atoms: _557  and  _558
REMARK  228  A    between atoms: _558  and  _559
REMARK  229  A    between atoms: _561  and  _563
REMARK  230  A    between atoms: _563  and  _564
REMARK  231  A    between atoms: _563  and  _566
REMARK  232  A    between atoms: _566  and  _567
REMARK  233  A    between atoms: _572  and  _574
REMARK  234  A    between atoms: _574  and  _575
REMARK  235  A    between atoms: _574  and  _577
REMARK  236  A    between atoms: _577  and  _578
REMARK  237  A    between atoms: _583  and  _585
REMARK  238  A    between atoms: _585  and  _586
REMARK  239  A    between atoms: _588  and  _590
REMARK  240  A    between atoms: _590  and  _591
REMARK  241  A    between atoms: _590  and  _593
REMARK  242  A    between atoms: _591  and  _592
REMARK  243  A    between atoms: _591  and  _597
REMARK  244  A    between atoms: _592  and  MG_734
REMARK  245  A    between atoms: _593  and  _594
REMARK  246  A    between atoms: _597  and  _599
REMARK  247  A    between atoms: _599  and  _600
REMARK  248  A    between atoms: _599  and  _602
REMARK  249  A    between atoms: _602  and  _603
REMARK  250  A    between atoms: _608  and  _609
REMARK  251  A    between atoms: _611  and  _613
REMARK  252  A    between atoms: _613  and  _614
REMARK  253  A    between atoms: _616  and  _618
REMARK  254  A    between atoms: _618  and  _619
REMARK  255  A    between atoms: _622  and  _624
REMARK  256  A    between atoms: _624  and  _625
REMARK  257  A    between atoms: _624  and  _627
REMARK  258  A    between atoms: _627  and  _628
REMARK  259  A    between atoms: _631  and  _633
REMARK  260  A    between atoms: _633  and  _634
REMARK  261  A    between atoms: _633  and  _636
REMARK  262  A    between atoms: _636  and  _637
REMARK  263  A    between atoms: _637  and  _638
REMARK  264  A    between atoms: _638  and  _639
REMARK  265  A    between atoms: _648  and  _650
REMARK  266  A    between atoms: _650  and  _651
REMARK  267  A    between atoms: _650  and  _653
REMARK  268  A    between atoms: _653  and  _654
REMARK  269  A    between atoms: _664  and  _666
REMARK  270  A    between atoms: _666  and  _667
REMARK  271  A    between atoms: _666  and  _669
REMARK  272  A    between atoms: _669  and  _670
REMARK  273  A    between atoms: _676  and  _678
REMARK  274  A    between atoms: _678  and  _679
REMARK  275  A    between atoms: _681  and  _683
REMARK  276  A    between atoms: _683  and  _684
REMARK  277  A    between atoms: _683  and  _686
REMARK  278  A    between atoms: _686  and  _687
REMARK  279  A    between atoms: _690  and  _692
REMARK  280  A    between atoms: _692  and  _693
REMARK  281  A    between atoms: _692  and  _695
REMARK  282  A    between atoms: _698  and  _700
REMARK  283  A    between atoms: _700  and  _701
REMARK  284  A    between atoms: _700  and  _703
REMARK  285  A    between atoms: _703  and  _704
REMARK  286  A    between atoms: _710  and  _712
REMARK  287  A    between atoms: _712  and  _713
REMARK  288  A    between atoms: _712  and  _715
REMARK  289  A    between atoms: _715  and  _716
REMARK  290  A    between atoms: _719  and  _721
REMARK  291  A    between atoms: _721  and  _722
REMARK  292  A    between atoms: _721  and  _724
REMARK  293  A    between atoms: _728  and  _729
REMARK                            x       y       z     vdW  Elec       q    Type
REMARK                         _______ _______ _______ _____ _____    ______ ____
ROOT
ATOM      1  C   LEU A   1      66.178  57.770 151.130  0.00  0.00    +0.238 C 
ATOM      2  N   LEU A   2      67.249  56.998 151.335  0.00  0.00    -0.298 N 
ATOM      3  H   LEU A   2      68.175  57.468 151.400  0.00  0.00    +0.150 HD
ATOM      4  O   LEU A   1      65.073  57.293 151.006  0.00  0.00    -0.274 OA
ENDROOT
BRANCH   1   5
ATOM      5  CA  LEU A   1      66.425  59.282 151.050  0.00  0.00    +0.145 C 
BRANCH   5   6
ATOM      6  N   LEU A   1      65.641  59.872 149.982  0.00  0.00    -0.238 NA
ATOM      7  H   LEU A   1      65.056  60.712 150.169  0.00  0.00    +0.142 HD
ENDBRANCH   5   6
BRANCH   5   8
ATOM      8  CB  LEU A   1      66.017  59.895 152.418  0.00  0.00    +0.026 C 
BRANCH   8   9
ATOM      9  CG  LEU A   1      67.019  59.628 153.555  0.00  0.00    +0.002 C 
ATOM     10  CD2 LEU A   1      66.310  59.997 154.877  0.00  0.00    +0.000 C 
ATOM     11  CD1 LEU A   1      68.385  60.216 153.402  0.00  0.00    +0.000 C 
ENDBRANCH   8   9
ENDBRANCH   5   8
ENDBRANCH   1   5
BRANCH   2  12
ATOM     12  CA  LEU A   2      67.218  55.515 151.477  0.00  0.00    +0.137 C 
BRANCH  12  13
ATOM     13  C   LEU A   2      67.111  54.805 150.125  0.00  0.00    +0.227 C 
ATOM     14  O   LEU A   2      67.055  53.606 150.076  0.00  0.00    -0.286 OA
ENDBRANCH  12  13
BRANCH  12  15
ATOM     15  CB  LEU A   2      66.190  54.990 152.480  0.00  0.00    +0.028 C 
BRANCH  15  16
ATOM     16  CG  LEU A   2      66.025  55.821 153.746  0.00  0.00    +0.002 C 
ATOM     17  CD2 LEU A   2      64.980  55.151 154.632  0.00  0.00    +0.000 C 
ATOM     18  CD1 LEU A   2      67.377  55.850 154.486  0.00  0.00    +0.000 C 
ENDBRANCH  15  16
ENDBRANCH  12  15
ENDBRANCH   2  12
TORSDOF 8
REMARK  Name = ../refined-set-2016/3f6e/3f6e_pocket.pdb
REMARK  293 active torsions:
REMARK  status: ('A' for Active; 'I' for Inactive)
REMARK    1  A    between atoms: _1  and  _3
REMARK    2  A    between atoms: _3  and  _4
REMARK    3  A    between atoms: _3  and  _6
REMARK    4  A    between atoms: _6  and  _7
REMARK    5  A    between atoms: _13  and  _14
REMARK    6  A    between atoms: _19  and  _21
REMARK    7  A    between atoms: _21  and  _22
REMARK    8  A    between atoms: _24  and  _26
REMARK    9  A    between atoms: _26  and  _27
REMARK   10  A    between atoms: _26  and  _29
REMARK   11  A    between atoms: _29  and  _30
REMARK   12  A    between atoms: _32  and  _34
REMARK   13  A    between atoms: _34  and  _35
REMARK   14  A    between atoms: _34  and  _37
REMARK   15  A    between atoms: _37  and  _38
REMARK   16  A    between atoms: _43  and  _45
REMARK   17  A    between atoms: _45  and  _46
REMARK   18  A    between atoms: _45  and  _48
REMARK   19  A    between atoms: _48  and  _49
REMARK   20  A    between atoms: _49  and  _50
REMARK   21  A    between atoms: _53  and  _55
REMARK   22  A    between atoms: _55  and  _56
REMARK   23  A    between atoms: _55  and  _58
REMARK   24  A    between atoms: _58  and  _59
REMARK   25  A    between atoms: _62  and  _64
REMARK   26  A    between atoms: _64  and  _65
REMARK   27  A    between atoms: _64  and  _67
REMARK   28  A    between atoms: _67  and  _68
REMARK   29  A    between atoms: _71  and  _73
REMARK   30  A    between atoms: _73  and  _74
REMARK   31  A    between atoms: _77  and  _79
REMARK   32  A    between atoms: _79  and  _80
REMARK   33  A    between atoms: _79  and  _82
REMARK   34  A    between atoms: _82  and  _83
REMARK   35  A    between atoms: _86  and  _88
REMARK   36  A    between atoms: _88  and  _89
REMARK   37  A    between atoms: _88  and  _91
REMARK   38  A    between atoms: _91  and  _92
REMARK   39  A    between atoms: _92  and  _93
REMARK   40  A    between atoms: _98  and  _100
REMARK   41  A    between atoms: _100  and  _101
REMARK   42  A    between atoms: _100  and  _103
REMARK   43  A    between atoms: _103  and  _104
REMARK   44  A    between atoms: _104  and  _105
REMARK   45  A    between atoms: _108  and  _110
REMARK   46  A    between atoms: _110  and  _111
REMARK   47  A    between atoms: _114  and  _116
REMARK   48  A    between atoms: _116  and  _117
REMARK   49  A    between atoms: _116  and  _119
REMARK   50  A    between atoms: _119  and  _120
REMARK   51  A    between atoms: _123  and  _125
REMARK   52  A    between atoms: _125  and  _126
REMARK   53  A    between atoms: _125  and  _128
REMARK   54  A    between atoms: _128  and  _129
REMARK   55  A    between atoms: _134  and  _136
REMARK   56  A    between atoms: _136  and  _137
REMARK   57  A    between atoms: _136  and  _139
REMARK   58  A    between atoms: _139  and  _140
REMARK   59  A    between atoms: _142  and  _144
REMARK   60  A    between atoms: _144  and  _145
REMARK   61  A    between atoms: _148  and  _150
REMARK   62  A    between atoms: _150  and  _151
REMARK   63  A    between atoms: _154  and  _156
REMARK   64  A    between atoms: _156  and  _157
REMARK   65  A    between atoms: _159  and  _161
REMARK   66  A    between atoms: _161  and  _162
REMARK   67  A    between atoms: _161  and  _164
REMARK   68  A    between atoms: _164  and  _165
REMARK   69  A    between atoms: _168  and  _170
REMARK   70  A    between atoms: _170  and  _171
REMARK   71  A    between atoms: _173  and  _175
REMARK   72  A    between atoms: _175  and  _176
REMARK   73  A    between atoms: _175  and  _178
REMARK   74  A    between atoms: _178  and  _179
REMARK   75  A    between atoms: _184  and  _186
REMARK   76  A    between atoms: _186  and  _187
REMARK   77  A    between atoms: _190  and  _192
REMARK   78  A    between atoms: _192  and  _193
REMARK   79  A    between atoms: _192  and  _195
REMARK   80  A    between atoms: _195  and  _196
REMARK   81  A    between atoms: _196  and  _197
REMARK   82  A    between atoms: _202  and  _204
REMARK   83  A    between atoms: _204  and  _205
REMARK   84  A    between atoms: _204  and  _207
REMARK   85  A    between atoms: _207  and  _208
REMARK   86  A    between atoms: _211  and  _213
REMARK   87  A    between atoms: _213  and  _214
REMARK   88  A    between atoms: _213  and  _216
REMARK   89  A    between atoms: _216  and  _217
REMARK   90  A    between atoms: _220  and  _222
REMARK   91  A    between atoms: _222  and  _223
REMARK   92  A    between atoms: _225  and  _227
REMARK   93  A    between atoms: _227  and  _228
REMARK   94  A    between atoms: _231  and  _233
REMARK   95  A    between atoms: _233  and  _234
REMARK   96  A    between atoms: _233  and  _236
REMARK   97  A    between atoms: _236  and  _237
REMARK   98  A    between atoms: _239  and  _241
REMARK   99  A    between atoms: _241  and  _242
REMARK  100  A    between atoms: _241  and  _244
REMARK  101  A    between atoms: _244  and  _245
REMARK  102  A    between atoms: _250  and  _252
REMARK  103  A    between atoms: _252  and  _253
REMARK  104  A    between atoms: _252  and  _255
REMARK  105  A    between atoms: _255  and  _256
REMARK  106  A    between atoms: _258  and  _260
REMARK  107  A    between atoms: _260  and  _261
REMARK  108  A    between atoms: _264  and  _266
REMARK  109  A    between atoms: _266  and  _267
REMARK  110  A    between atoms: _270  and  _272
REMARK  111  A    between atoms: _272  and  _273
REMARK  112  A    between atoms: _272  and  _275
REMARK  113  A    between atoms: _275  and  _276
REMARK  114  A    between atoms: _276  and  _277
REMARK  115  A    between atoms: _277  and  _278
REMARK  116  A    between atoms: _287  and  _289
REMARK  117  A    between atoms: _289  and  _290
REMARK  118  A    between atoms: _289  and  _292
REMARK  119  A    between atoms: _292  and  _293
REMARK  120  A    between atoms: _298  and  _299
REMARK  121  A    between atoms: _301  and  _303
REMARK  122  A    between atoms: _303  and  _304
REMARK  123  A    between atoms: _303  and  _306
REMARK  124  A    between atoms: _306  and  _307
REMARK  125  A    between atoms: _312  and  _314
REMARK  126  A    between atoms: _314  and  _315
REMARK  127  A    between atoms: _314  and  _317
REMARK  128  A    between atoms: _317  and  _318
REMARK  129  A    between atoms: _318  and  _319
REMARK  130  A    between atoms: _325  and  _326
REMARK  131  A    between atoms: _331  and  _333
REMARK  132  A    between atoms: _333  and  _334
REMARK  133  A    between atoms: _333  and  _336
REMARK  134  A    between atoms: _336  and  _337
REMARK  135  A    between atoms: _342  and  _344
REMARK  136  A    between atoms: _344  and  _345
REMARK  137  A    between atoms: _344  and  _347
REMARK  138  A    between atoms: _347  and  _348
REMARK  139  A    between atoms: _348  and  _349
REMARK  140  A    between atoms: _352  and  _354
REMARK  141  A    between atoms: _354  and  _355
REMARK  142  A    between atoms: _354  and  _357
REMARK  143  A    between atoms: _357  and  _358
REMARK  144  A    between atoms: _360  and  _362
REMARK  145  A    between atoms: _362  and  _363
REMARK  146  A    between atoms: _362  and  _365
REMARK  147  A    between atoms: _365  and  _366
REMARK  148  A    between atoms: _369  and  _371
REMARK  149  A    between atoms: _371  and  _372
REMARK  150  A    between atoms: _371  and  _374
REMARK  151  A    between atoms: _374  and  _375
REMARK  152  A    between atoms: _377  and  _379
REMARK  153  A    between atoms: _379  and  _380
REMARK  154  A    between atoms: _379  and  _382
REMARK  155  A    between atoms: _382  and  _383
REMARK  156  A    between atoms: _386  and  _388
REMARK  157  A    between atoms: _388  and  _389
REMARK  158  A    between atoms: _388  and  _391
REMARK  159  A    between atoms: _391  and  _392
REMARK  160  A    between atoms: _395  and  _397
REMARK  161  A    between atoms: _397  and  _398
REMARK  162  A    between atoms: _397  and  _400
REMARK  163  A    between atoms: _400  and  _401
REMARK  164  A    between atoms: _401  and  _402
REMARK  165  A    between atoms: _407  and  _409
REMARK  166  A    between atoms: _409  and  _410
REMARK  167  A    between atoms: _409  and  _412
REMARK  168  A    between atoms: _412  and  _413
REMARK  169  A    between atoms: _419  and  _421
REMARK  170  A    between atoms: _421  and  _422
REMARK  171  A    between atoms: _421  and  _424
REMARK  172  A    between atoms: _426  and  _428
REMARK  173  A    between atoms: _428  and  _429
REMARK  174  A    between atoms: _432  and  _434
REMARK  175  A    between atoms: _434  and  _435
REMARK  176  A    between atoms: _437  and  _439
REMARK  177  A    between atoms: _439  and  _440
REMARK  178  A    between atoms: _442  and  _444
REMARK  179  A    between atoms: _444  and  _445
REMARK  180  A    between atoms: _444  and  _447
REMARK  181  A    between atoms: _447  and  _448
REMARK  182  A    between atoms: _451  and  _453
REMARK  183  A    between atoms: _453  and  _454
REMARK  184  A    between atoms: _456  and  _458
REMARK  185  A    between atoms: _458  and  _459
REMARK  186  A    between atoms: _458  and  _461
REMARK  187  A    between atoms: _461  and  _462
REMARK  188  A    between atoms: _468  and  _470
REMARK  189  A    between atoms: _470  and  _471
REMARK  190  A    between atoms: _470  and  _473
REMARK  191  A    between atoms: _476  and  _478
REMARK  192  A    between atoms: _478  and  _479
REMARK  193  A    between atoms: _478  and  _481
REMARK  194  A    between atoms: _481  and  _482
REMARK  195  A    between atoms: _485  and  _487
REMARK  196  A    between atoms: _487  and  _488
REMARK  197  A    between atoms: _490  and  _492
REMARK  198  A    between atoms: _492  and  _493
REMARK  199  A    between atoms: _492  and  _495
REMARK  200  A    between atoms: _495  and  _496
REMARK  201  A    between atoms: _496  and  _497
REMARK  202  A    between atoms: _497  and  MG_734
REMARK  203  A    between atoms: _499  and  _501
REMARK  204  A    between atoms: _501  and  _502
REMARK  205  A    between atoms: _504  and  _506
REMARK  206  A    between atoms: _506  and  _507
REMARK  207  A    between atoms: _506  and  _509
REMARK  208  A    between atoms: _509  and  _510
REMARK  209  A    between atoms: _512  and  _514
REMARK  210  A    between atoms: _514  and  _515
REMARK  211  A    between atoms: _518  and  _520
REMARK  212  A    between atoms: _520  and  _521
REMARK  213  A    between atoms: _520  and  _523
REMARK  214  A    between atoms: _523  and  _524
REMARK  215  A    between atoms: _529  and  _531
REMARK  216  A    between atoms: _531  and  _532
REMARK  217  A    between atoms: _531  and  _534
REMARK  218  A    between atoms: _534  and  _535
REMARK  219  A    between atoms: _540  and  _541
REMARK  220  A    between atoms: _543  and  _545
REMARK  221  A    between atoms: _545  and  _546
REMARK  222  A    between atoms: _545  and  _548
REMARK  223  A    between atoms: _548  and  _549
REMARK  224  A    between atoms: _552  and  _554
REMARK  225  A    between atoms: _554  and  _555
REMARK  226  A    between atoms: _554  and  _557
REMARK  227  A    between atoms: _557  and  _558
REMARK  228  A    between atoms: _558  and  _559
REMARK  229  A    between atoms: _561  and  _563
REMARK  230  A    between atoms: _563  and  _564
REMARK  231  A    between atoms: _563  and  _566
REMARK  232  A    between atoms: _566  and  _567
REMARK  233  A    between atoms: _572  and  _574
REMARK  234  A    between atoms: _574  and  _575
REMARK  235  A    between atoms: _574  and  _577
REMARK  236  A    between atoms: _577  and  _578
REMARK  237  A    between atoms: _583  and  _585
REMARK  238  A    between atoms: _585  and  _586
REMARK  239  A    between atoms: _588  and  _590
REMARK  240  A    between atoms: _590  and  _591
REMARK  241  A    between atoms: _590  and  _593
REMARK  242  A    between atoms: _591  and  _592
REMARK  243  A    between atoms: _591  and  _597
REMARK  244  A    between atoms: _592  and  MG_734
REMARK  245  A    between atoms: _593  and  _594
REMARK  246  A    between atoms: _597  and  _599
REMARK  247  A    between atoms: _599  and  _600
REMARK  248  A    between atoms: _599  and  _602
REMARK  249  A    between atoms: _602  and  _603
REMARK  250  A    between atoms: _608  and  _609
REMARK  251  A    between atoms: _611  and  _613
REMARK  252  A    between atoms: _613  and  _614
REMARK  253  A    between atoms: _616  and  _618
REMARK  254  A    between atoms: _618  and  _619
REMARK  255  A    between atoms: _622  and  _624
REMARK  256  A    between atoms: _624  and  _625
REMARK  257  A    between atoms: _624  and  _627
REMARK  258  A    between atoms: _627  and  _628
REMARK  259  A    between atoms: _631  and  _633
REMARK  260  A    between atoms: _633  and  _634
REMARK  261  A    between atoms: _633  and  _636
REMARK  262  A    between atoms: _636  and  _637
REMARK  263  A    between atoms: _637  and  _638
REMARK  264  A    between atoms: _638  and  _639
REMARK  265  A    between atoms: _648  and  _650
REMARK  266  A    between atoms: _650  and  _651
REMARK  267  A    between atoms: _650  and  _653
REMARK  268  A    between atoms: _653  and  _654
REMARK  269  A    between atoms: _664  and  _666
REMARK  270  A    between atoms: _666  and  _667
REMARK  271  A    between atoms: _666  and  _669
REMARK  272  A    between atoms: _669  and  _670
REMARK  273  A    between atoms: _676  and  _678
REMARK  274  A    between atoms: _678  and  _679
REMARK  275  A    between atoms: _681  and  _683
REMARK  276  A    between atoms: _683  and  _684
REMARK  277  A    between atoms: _683  and  _686
REMARK  278  A    between atoms: _686  and  _687
REMARK  279  A    between atoms: _690  and  _692
REMARK  280  A    between atoms: _692  and  _693
REMARK  281  A    between atoms: _692  and  _695
REMARK  282  A    between atoms: _698  and  _700
REMARK  283  A    between atoms: _700  and  _701
REMARK  284  A    between atoms: _700  and  _703
REMARK  285  A    between atoms: _703  and  _704
REMARK  286  A    between atoms: _710  and  _712
REMARK  287  A    between atoms: _712  and  _713
REMARK  288  A    between atoms: _712  and  _715
REMARK  289  A    between atoms: _715  and  _716
REMARK  290  A    between atoms: _719  and  _721
REMARK  291  A    between atoms: _721  and  _722
REMARK  292  A    between atoms: _721  and  _724
REMARK  293  A    between atoms: _728  and  _729
REMARK                            x       y       z     vdW  Elec       q    Type
REMARK                         _______ _______ _______ _____ _____    ______ ____
ROOT
ATOM      1  C   GLY A   1      78.529  53.674 155.337  0.00  0.00    +0.240 C 
ATOM      2  N   ALA A   2      79.697  53.895 155.953  0.00  0.00    -0.298 N 
ATOM      3  H   ALA A   2      80.290  53.097 156.257  0.00  0.00    +0.150 HD
ATOM      4  O   GLY A   1      77.743  54.579 155.080  0.00  0.00    -0.274 OA
ENDROOT
BRANCH   2   5
ATOM      5  CA  ALA A   2      80.117  55.230 156.187  0.00  0.00    +0.137 C 
ATOM      6  CB  ALA A   2      81.448  55.200 156.976  0.00  0.00    +0.030 C 
BRANCH   5   7
ATOM      7  C   ALA A   2      80.303  56.047 154.874  0.00  0.00    +0.227 C 
ATOM      8  O   ALA A   2      79.985  57.256 154.809  0.00  0.00    -0.286 OA
ENDBRANCH   5   7
ENDBRANCH   2   5
BRANCH   1   9
ATOM      9  CA  GLY A   1      78.166  52.233 155.013  0.00  0.00    +0.169 C 
BRANCH   9  10
ATOM     10  N   GLY A   1      79.316  51.500 154.558  0.00  0.00    -0.236 NA
ATOM     11  H   GLY A   1      79.705  50.711 155.113  0.00  0.00    +0.142 HD
ENDBRANCH   9  10
ENDBRANCH   1   9
TORSDOF 4
REMARK  Name = ../refined-set-2016/3f6e/3f6e_pocket.pdb
REMARK  293 active torsions:
REMARK  status: ('A' for Active; 'I' for Inactive)
REMARK    1  A    between atoms: _1  and  _3
REMARK    2  A    between atoms: _3  and  _4
REMARK    3  A    between atoms: _3  and  _6
REMARK    4  A    between atoms: _6  and  _7
REMARK    5  A    between atoms: _13  and  _14
REMARK    6  A    between atoms: _19  and  _21
REMARK    7  A    between atoms: _21  and  _22
REMARK    8  A    between atoms: _24  and  _26
REMARK    9  A    between atoms: _26  and  _27
REMARK   10  A    between atoms: _26  and  _29
REMARK   11  A    between atoms: _29  and  _30
REMARK   12  A    between atoms: _32  and  _34
REMARK   13  A    between atoms: _34  and  _35
REMARK   14  A    between atoms: _34  and  _37
REMARK   15  A    between atoms: _37  and  _38
REMARK   16  A    between atoms: _43  and  _45
REMARK   17  A    between atoms: _45  and  _46
REMARK   18  A    between atoms: _45  and  _48
REMARK   19  A    between atoms: _48  and  _49
REMARK   20  A    between atoms: _49  and  _50
REMARK   21  A    between atoms: _53  and  _55
REMARK   22  A    between atoms: _55  and  _56
REMARK   23  A    between atoms: _55  and  _58
REMARK   24  A    between atoms: _58  and  _59
REMARK   25  A    between atoms: _62  and  _64
REMARK   26  A    between atoms: _64  and  _65
REMARK   27  A    between atoms: _64  and  _67
REMARK   28  A    between atoms: _67  and  _68
REMARK   29  A    between atoms: _71  and  _73
REMARK   30  A    between atoms: _73  and  _74
REMARK   31  A    between atoms: _77  and  _79
REMARK   32  A    between atoms: _79  and  _80
REMARK   33  A    between atoms: _79  and  _82
REMARK   34  A    between atoms: _82  and  _83
REMARK   35  A    between atoms: _86  and  _88
REMARK   36  A    between atoms: _88  and  _89
REMARK   37  A    between atoms: _88  and  _91
REMARK   38  A    between atoms: _91  and  _92
REMARK   39  A    between atoms: _92  and  _93
REMARK   40  A    between atoms: _98  and  _100
REMARK   41  A    between atoms: _100  and  _101
REMARK   42  A    between atoms: _100  and  _103
REMARK   43  A    between atoms: _103  and  _104
REMARK   44  A    between atoms: _104  and  _105
REMARK   45  A    between atoms: _108  and  _110
REMARK   46  A    between atoms: _110  and  _111
REMARK   47  A    between atoms: _114  and  _116
REMARK   48  A    between atoms: _116  and  _117
REMARK   49  A    between atoms: _116  and  _119
REMARK   50  A    between atoms: _119  and  _120
REMARK   51  A    between atoms: _123  and  _125
REMARK   52  A    between atoms: _125  and  _126
REMARK   53  A    between atoms: _125  and  _128
REMARK   54  A    between atoms: _128  and  _129
REMARK   55  A    between atoms: _134  and  _136
REMARK   56  A    between atoms: _136  and  _137
REMARK   57  A    between atoms: _136  and  _139
REMARK   58  A    between atoms: _139  and  _140
REMARK   59  A    between atoms: _142  and  _144
REMARK   60  A    between atoms: _144  and  _145
REMARK   61  A    between atoms: _148  and  _150
REMARK   62  A    between atoms: _150  and  _151
REMARK   63  A    between atoms: _154  and  _156
REMARK   64  A    between atoms: _156  and  _157
REMARK   65  A    between atoms: _159  and  _161
REMARK   66  A    between atoms: _161  and  _162
REMARK   67  A    between atoms: _161  and  _164
REMARK   68  A    between atoms: _164  and  _165
REMARK   69  A    between atoms: _168  and  _170
REMARK   70  A    between atoms: _170  and  _171
REMARK   71  A    between atoms: _173  and  _175
REMARK   72  A    between atoms: _175  and  _176
REMARK   73  A    between atoms: _175  and  _178
REMARK   74  A    between atoms: _178  and  _179
REMARK   75  A    between atoms: _184  and  _186
REMARK   76  A    between atoms: _186  and  _187
REMARK   77  A    between atoms: _190  and  _192
REMARK   78  A    between atoms: _192  and  _193
REMARK   79  A    between atoms: _192  and  _195
REMARK   80  A    between atoms: _195  and  _196
REMARK   81  A    between atoms: _196  and  _197
REMARK   82  A    between atoms: _202  and  _204
REMARK   83  A    between atoms: _204  and  _205
REMARK   84  A    between atoms: _204  and  _207
REMARK   85  A    between atoms: _207  and  _208
REMARK   86  A    between atoms: _211  and  _213
REMARK   87  A    between atoms: _213  and  _214
REMARK   88  A    between atoms: _213  and  _216
REMARK   89  A    between atoms: _216  and  _217
REMARK   90  A    between atoms: _220  and  _222
REMARK   91  A    between atoms: _222  and  _223
REMARK   92  A    between atoms: _225  and  _227
REMARK   93  A    between atoms: _227  and  _228
REMARK   94  A    between atoms: _231  and  _233
REMARK   95  A    between atoms: _233  and  _234
REMARK   96  A    between atoms: _233  and  _236
REMARK   97  A    between atoms: _236  and  _237
REMARK   98  A    between atoms: _239  and  _241
REMARK   99  A    between atoms: _241  and  _242
REMARK  100  A    between atoms: _241  and  _244
REMARK  101  A    between atoms: _244  and  _245
REMARK  102  A    between atoms: _250  and  _252
REMARK  103  A    between atoms: _252  and  _253
REMARK  104  A    between atoms: _252  and  _255
REMARK  105  A    between atoms: _255  and  _256
REMARK  106  A    between atoms: _258  and  _260
REMARK  107  A    between atoms: _260  and  _261
REMARK  108  A    between atoms: _264  and  _266
REMARK  109  A    between atoms: _266  and  _267
REMARK  110  A    between atoms: _270  and  _272
REMARK  111  A    between atoms: _272  and  _273
REMARK  112  A    between atoms: _272  and  _275
REMARK  113  A    between atoms: _275  and  _276
REMARK  114  A    between atoms: _276  and  _277
REMARK  115  A    between atoms: _277  and  _278
REMARK  116  A    between atoms: _287  and  _289
REMARK  117  A    between atoms: _289  and  _290
REMARK  118  A    between atoms: _289  and  _292
REMARK  119  A    between atoms: _292  and  _293
REMARK  120  A    between atoms: _298  and  _299
REMARK  121  A    between atoms: _301  and  _303
REMARK  122  A    between atoms: _303  and  _304
REMARK  123  A    between atoms: _303  and  _306
REMARK  124  A    between atoms: _306  and  _307
REMARK  125  A    between atoms: _312  and  _314
REMARK  126  A    between atoms: _314  and  _315
REMARK  127  A    between atoms: _314  and  _317
REMARK  128  A    between atoms: _317  and  _318
REMARK  129  A    between atoms: _318  and  _319
REMARK  130  A    between atoms: _325  and  _326
REMARK  131  A    between atoms: _331  and  _333
REMARK  132  A    between atoms: _333  and  _334
REMARK  133  A    between atoms: _333  and  _336
REMARK  134  A    between atoms: _336  and  _337
REMARK  135  A    between atoms: _342  and  _344
REMARK  136  A    between atoms: _344  and  _345
REMARK  137  A    between atoms: _344  and  _347
REMARK  138  A    between atoms: _347  and  _348
REMARK  139  A    between atoms: _348  and  _349
REMARK  140  A    between atoms: _352  and  _354
REMARK  141  A    between atoms: _354  and  _355
REMARK  142  A    between atoms: _354  and  _357
REMARK  143  A    between atoms: _357  and  _358
REMARK  144  A    between atoms: _360  and  _362
REMARK  145  A    between atoms: _362  and  _363
REMARK  146  A    between atoms: _362  and  _365
REMARK  147  A    between atoms: _365  and  _366
REMARK  148  A    between atoms: _369  and  _371
REMARK  149  A    between atoms: _371  and  _372
REMARK  150  A    between atoms: _371  and  _374
REMARK  151  A    between atoms: _374  and  _375
REMARK  152  A    between atoms: _377  and  _379
REMARK  153  A    between atoms: _379  and  _380
REMARK  154  A    between atoms: _379  and  _382
REMARK  155  A    between atoms: _382  and  _383
REMARK  156  A    between atoms: _386  and  _388
REMARK  157  A    between atoms: _388  and  _389
REMARK  158  A    between atoms: _388  and  _391
REMARK  159  A    between atoms: _391  and  _392
REMARK  160  A    between atoms: _395  and  _397
REMARK  161  A    between atoms: _397  and  _398
REMARK  162  A    between atoms: _397  and  _400
REMARK  163  A    between atoms: _400  and  _401
REMARK  164  A    between atoms: _401  and  _402
REMARK  165  A    between atoms: _407  and  _409
REMARK  166  A    between atoms: _409  and  _410
REMARK  167  A    between atoms: _409  and  _412
REMARK  168  A    between atoms: _412  and  _413
REMARK  169  A    between atoms: _419  and  _421
REMARK  170  A    between atoms: _421  and  _422
REMARK  171  A    between atoms: _421  and  _424
REMARK  172  A    between atoms: _426  and  _428
REMARK  173  A    between atoms: _428  and  _429
REMARK  174  A    between atoms: _432  and  _434
REMARK  175  A    between atoms: _434  and  _435
REMARK  176  A    between atoms: _437  and  _439
REMARK  177  A    between atoms: _439  and  _440
REMARK  178  A    between atoms: _442  and  _444
REMARK  179  A    between atoms: _444  and  _445
REMARK  180  A    between atoms: _444  and  _447
REMARK  181  A    between atoms: _447  and  _448
REMARK  182  A    between atoms: _451  and  _453
REMARK  183  A    between atoms: _453  and  _454
REMARK  184  A    between atoms: _456  and  _458
REMARK  185  A    between atoms: _458  and  _459
REMARK  186  A    between atoms: _458  and  _461
REMARK  187  A    between atoms: _461  and  _462
REMARK  188  A    between atoms: _468  and  _470
REMARK  189  A    between atoms: _470  and  _471
REMARK  190  A    between atoms: _470  and  _473
REMARK  191  A    between atoms: _476  and  _478
REMARK  192  A    between atoms: _478  and  _479
REMARK  193  A    between atoms: _478  and  _481
REMARK  194  A    between atoms: _481  and  _482
REMARK  195  A    between atoms: _485  and  _487
REMARK  196  A    between atoms: _487  and  _488
REMARK  197  A    between atoms: _490  and  _492
REMARK  198  A    between atoms: _492  and  _493
REMARK  199  A    between atoms: _492  and  _495
REMARK  200  A    between atoms: _495  and  _496
REMARK  201  A    between atoms: _496  and  _497
REMARK  202  A    between atoms: _497  and  MG_734
REMARK  203  A    between atoms: _499  and  _501
REMARK  204  A    between atoms: _501  and  _502
REMARK  205  A    between atoms: _504  and  _506
REMARK  206  A    between atoms: _506  and  _507
REMARK  207  A    between atoms: _506  and  _509
REMARK  208  A    between atoms: _509  and  _510
REMARK  209  A    between atoms: _512  and  _514
REMARK  210  A    between atoms: _514  and  _515
REMARK  211  A    between atoms: _518  and  _520
REMARK  212  A    between atoms: _520  and  _521
REMARK  213  A    between atoms: _520  and  _523
REMARK  214  A    between atoms: _523  and  _524
REMARK  215  A    between atoms: _529  and  _531
REMARK  216  A    between atoms: _531  and  _532
REMARK  217  A    between atoms: _531  and  _534
REMARK  218  A    between atoms: _534  and  _535
REMARK  219  A    between atoms: _540  and  _541
REMARK  220  A    between atoms: _543  and  _545
REMARK  221  A    between atoms: _545  and  _546
REMARK  222  A    between atoms: _545  and  _548
REMARK  223  A    between atoms: _548  and  _549
REMARK  224  A    between atoms: _552  and  _554
REMARK  225  A    between atoms: _554  and  _555
REMARK  226  A    between atoms: _554  and  _557
REMARK  227  A    between atoms: _557  and  _558
REMARK  228  A    between atoms: _558  and  _559
REMARK  229  A    between atoms: _561  and  _563
REMARK  230  A    between atoms: _563  and  _564
REMARK  231  A    between atoms: _563  and  _566
REMARK  232  A    between atoms: _566  and  _567
REMARK  233  A    between atoms: _572  and  _574
REMARK  234  A    between atoms: _574  and  _575
REMARK  235  A    between atoms: _574  and  _577
REMARK  236  A    between atoms: _577  and  _578
REMARK  237  A    between atoms: _583  and  _585
REMARK  238  A    between atoms: _585  and  _586
REMARK  239  A    between atoms: _588  and  _590
REMARK  240  A    between atoms: _590  and  _591
REMARK  241  A    between atoms: _590  and  _593
REMARK  242  A    between atoms: _591  and  _592
REMARK  243  A    between atoms: _591  and  _597
REMARK  244  A    between atoms: _592  and  MG_734
REMARK  245  A    between atoms: _593  and  _594
REMARK  246  A    between atoms: _597  and  _599
REMARK  247  A    between atoms: _599  and  _600
REMARK  248  A    between atoms: _599  and  _602
REMARK  249  A    between atoms: _602  and  _603
REMARK  250  A    between atoms: _608  and  _609
REMARK  251  A    between atoms: _611  and  _613
REMARK  252  A    between atoms: _613  and  _614
REMARK  253  A    between atoms: _616  and  _618
REMARK  254  A    between atoms: _618  and  _619
REMARK  255  A    between atoms: _622  and  _624
REMARK  256  A    between atoms: _624  and  _625
REMARK  257  A    between atoms: _624  and  _627
REMARK  258  A    between atoms: _627  and  _628
REMARK  259  A    between atoms: _631  and  _633
REMARK  260  A    between atoms: _633  and  _634
REMARK  261  A    between atoms: _633  and  _636
REMARK  262  A    between atoms: _636  and  _637
REMARK  263  A    between atoms: _637  and  _638
REMARK  264  A    between atoms: _638  and  _639
REMARK  265  A    between atoms: _648  and  _650
REMARK  266  A    between atoms: _650  and  _651
REMARK  267  A    between atoms: _650  and  _653
REMARK  268  A    between atoms: _653  and  _654
REMARK  269  A    between atoms: _664  and  _666
REMARK  270  A    between atoms: _666  and  _667
REMARK  271  A    between atoms: _666  and  _669
REMARK  272  A    between atoms: _669  and  _670
REMARK  273  A    between atoms: _676  and  _678
REMARK  274  A    between atoms: _678  and  _679
REMARK  275  A    between atoms: _681  and  _683
REMARK  276  A    between atoms: _683  and  _684
REMARK  277  A    between atoms: _683  and  _686
REMARK  278  A    between atoms: _686  and  _687
REMARK  279  A    between atoms: _690  and  _692
REMARK  280  A    between atoms: _692  and  _693
REMARK  281  A    between atoms: _692  and  _695
REMARK  282  A    between atoms: _698  and  _700
REMARK  283  A    between atoms: _700  and  _701
REMARK  284  A    between atoms: _700  and  _703
REMARK  285  A    between atoms: _703  and  _704
REMARK  286  A    between atoms: _710  and  _712
REMARK  287  A    between atoms: _712  and  _713
REMARK  288  A    between atoms: _712  and  _715
REMARK  289  A    between atoms: _715  and  _716
REMARK  290  A    between atoms: _719  and  _721
REMARK  291  A    between atoms: _721  and  _722
REMARK  292  A    between atoms: _721  and  _724
REMARK  293  A    between atoms: _728  and  _729
REMARK                            x       y       z     vdW  Elec       q    Type
REMARK                         _______ _______ _______ _____ _____    ______ ____
ROOT
ATOM      1  C   SER A   1      76.782  57.362 152.285  0.00  0.00    +0.241 C 
ATOM      2  N   ASN A   2      77.022  57.599 153.570  0.00  0.00    -0.298 N 
ATOM      3  H   ASN A   2      77.401  56.851 154.185  0.00  0.00    +0.150 HD
ATOM      4  O   SER A   1      76.281  58.191 151.532  0.00  0.00    -0.274 OA
ENDROOT
BRANCH   1   5
ATOM      5  CA  SER A   1      77.248  55.973 151.736  0.00  0.00    +0.174 C 
BRANCH   5   6
ATOM      6  N   SER A   1      78.561  55.621 152.236  0.00  0.00    -0.236 NA
ATOM      7  H   SER A   1      78.703  54.760 152.801  0.00  0.00    +0.142 HD
ENDBRANCH   5   6
BRANCH   5   8
ATOM      8  CB  SER A   1      76.207  54.890 152.014  0.00  0.00    +0.163 C 
BRANCH   8   9
ATOM      9  OG  SER A   1      75.697  54.905 153.320  0.00  0.00    -0.380 OA
ATOM     10  H   SER A   1      76.437  54.770 153.964  0.00  0.00    +0.211 HD
ENDBRANCH   8   9
ENDBRANCH   5   8
ENDBRANCH   1   5
BRANCH   2  11
ATOM     11  CA  ASN A   2      76.748  58.910 154.096  0.00  0.00    +0.146 C 
BRANCH  11  12
ATOM     12  C   ASN A   2      77.575  60.004 153.442  0.00  0.00    +0.227 C 
ATOM     13  O   ASN A   2      77.106  61.076 153.091  0.00  0.00    -0.286 OA
ENDBRANCH  11  12
BRANCH  11  14
ATOM     14  CB  ASN A   2      76.933  58.971 155.613  0.00  0.00    +0.112 C 
BRANCH  14  15
ATOM     15  CG  ASN A   2      75.865  58.209 156.375  0.00  0.00    +0.222 C 
ATOM     16  ND2 ASN A   2      76.220  57.443 157.394  0.00  0.00    -0.329 N 
ATOM     17 HD21 ASN A   2      75.495  56.936 157.941  0.00  0.00    +0.145 HD
ATOM     18 HD22 ASN A   2      77.224  57.348 157.648  0.00  0.00    +0.145 HD
ATOM     19  OD1 ASN A   2      74.644  58.347 156.038  0.00  0.00    -0.275 OA
ENDBRANCH  14  15
ENDBRANCH  11  14
ENDBRANCH   2  11
TORSDOF 8
REMARK  Name = ../refined-set-2016/3f6e/3f6e_pocket.pdb
REMARK  293 active torsions:
REMARK  status: ('A' for Active; 'I' for Inactive)
REMARK    1  A    between atoms: _1  and  _3
REMARK    2  A    between atoms: _3  and  _4
REMARK    3  A    between atoms: _3  and  _6
REMARK    4  A    between atoms: _6  and  _7
REMARK    5  A    between atoms: _13  and  _14
REMARK    6  A    between atoms: _19  and  _21
REMARK    7  A    between atoms: _21  and  _22
REMARK    8  A    between atoms: _24  and  _26
REMARK    9  A    between atoms: _26  and  _27
REMARK   10  A    between atoms: _26  and  _29
REMARK   11  A    between atoms: _29  and  _30
REMARK   12  A    between atoms: _32  and  _34
REMARK   13  A    between atoms: _34  and  _35
REMARK   14  A    between atoms: _34  and  _37
REMARK   15  A    between atoms: _37  and  _38
REMARK   16  A    between atoms: _43  and  _45
REMARK   17  A    between atoms: _45  and  _46
REMARK   18  A    between atoms: _45  and  _48
REMARK   19  A    between atoms: _48  and  _49
REMARK   20  A    between atoms: _49  and  _50
REMARK   21  A    between atoms: _53  and  _55
REMARK   22  A    between atoms: _55  and  _56
REMARK   23  A    between atoms: _55  and  _58
REMARK   24  A    between atoms: _58  and  _59
REMARK   25  A    between atoms: _62  and  _64
REMARK   26  A    between atoms: _64  and  _65
REMARK   27  A    between atoms: _64  and  _67
REMARK   28  A    between atoms: _67  and  _68
REMARK   29  A    between atoms: _71  and  _73
REMARK   30  A    between atoms: _73  and  _74
REMARK   31  A    between atoms: _77  and  _79
REMARK   32  A    between atoms: _79  and  _80
REMARK   33  A    between atoms: _79  and  _82
REMARK   34  A    between atoms: _82  and  _83
REMARK   35  A    between atoms: _86  and  _88
REMARK   36  A    between atoms: _88  and  _89
REMARK   37  A    between atoms: _88  and  _91
REMARK   38  A    between atoms: _91  and  _92
REMARK   39  A    between atoms: _92  and  _93
REMARK   40  A    between atoms: _98  and  _100
REMARK   41  A    between atoms: _100  and  _101
REMARK   42  A    between atoms: _100  and  _103
REMARK   43  A    between atoms: _103  and  _104
REMARK   44  A    between atoms: _104  and  _105
REMARK   45  A    between atoms: _108  and  _110
REMARK   46  A    between atoms: _110  and  _111
REMARK   47  A    between atoms: _114  and  _116
REMARK   48  A    between atoms: _116  and  _117
REMARK   49  A    between atoms: _116  and  _119
REMARK   50  A    between atoms: _119  and  _120
REMARK   51  A    between atoms: _123  and  _125
REMARK   52  A    between atoms: _125  and  _126
REMARK   53  A    between atoms: _125  and  _128
REMARK   54  A    between atoms: _128  and  _129
REMARK   55  A    between atoms: _134  and  _136
REMARK   56  A    between atoms: _136  and  _137
REMARK   57  A    between atoms: _136  and  _139
REMARK   58  A    between atoms: _139  and  _140
REMARK   59  A    between atoms: _142  and  _144
REMARK   60  A    between atoms: _144  and  _145
REMARK   61  A    between atoms: _148  and  _150
REMARK   62  A    between atoms: _150  and  _151
REMARK   63  A    between atoms: _154  and  _156
REMARK   64  A    between atoms: _156  and  _157
REMARK   65  A    between atoms: _159  and  _161
REMARK   66  A    between atoms: _161  and  _162
REMARK   67  A    between atoms: _161  and  _164
REMARK   68  A    between atoms: _164  and  _165
REMARK   69  A    between atoms: _168  and  _170
REMARK   70  A    between atoms: _170  and  _171
REMARK   71  A    between atoms: _173  and  _175
REMARK   72  A    between atoms: _175  and  _176
REMARK   73  A    between atoms: _175  and  _178
REMARK   74  A    between atoms: _178  and  _179
REMARK   75  A    between atoms: _184  and  _186
REMARK   76  A    between atoms: _186  and  _187
REMARK   77  A    between atoms: _190  and  _192
REMARK   78  A    between atoms: _192  and  _193
REMARK   79  A    between atoms: _192  and  _195
REMARK   80  A    between atoms: _195  and  _196
REMARK   81  A    between atoms: _196  and  _197
REMARK   82  A    between atoms: _202  and  _204
REMARK   83  A    between atoms: _204  and  _205
REMARK   84  A    between atoms: _204  and  _207
REMARK   85  A    between atoms: _207  and  _208
REMARK   86  A    between atoms: _211  and  _213
REMARK   87  A    between atoms: _213  and  _214
REMARK   88  A    between atoms: _213  and  _216
REMARK   89  A    between atoms: _216  and  _217
REMARK   90  A    between atoms: _220  and  _222
REMARK   91  A    between atoms: _222  and  _223
REMARK   92  A    between atoms: _225  and  _227
REMARK   93  A    between atoms: _227  and  _228
REMARK   94  A    between atoms: _231  and  _233
REMARK   95  A    between atoms: _233  and  _234
REMARK   96  A    between atoms: _233  and  _236
REMARK   97  A    between atoms: _236  and  _237
REMARK   98  A    between atoms: _239  and  _241
REMARK   99  A    between atoms: _241  and  _242
REMARK  100  A    between atoms: _241  and  _244
REMARK  101  A    between atoms: _244  and  _245
REMARK  102  A    between atoms: _250  and  _252
REMARK  103  A    between atoms: _252  and  _253
REMARK  104  A    between atoms: _252  and  _255
REMARK  105  A    between atoms: _255  and  _256
REMARK  106  A    between atoms: _258  and  _260
REMARK  107  A    between atoms: _260  and  _261
REMARK  108  A    between atoms: _264  and  _266
REMARK  109  A    between atoms: _266  and  _267
REMARK  110  A    between atoms: _270  and  _272
REMARK  111  A    between atoms: _272  and  _273
REMARK  112  A    between atoms: _272  and  _275
REMARK  113  A    between atoms: _275  and  _276
REMARK  114  A    between atoms: _276  and  _277
REMARK  115  A    between atoms: _277  and  _278
REMARK  116  A    between atoms: _287  and  _289
REMARK  117  A    between atoms: _289  and  _290
REMARK  118  A    between atoms: _289  and  _292
REMARK  119  A    between atoms: _292  and  _293
REMARK  120  A    between atoms: _298  and  _299
REMARK  121  A    between atoms: _301  and  _303
REMARK  122  A    between atoms: _303  and  _304
REMARK  123  A    between atoms: _303  and  _306
REMARK  124  A    between atoms: _306  and  _307
REMARK  125  A    between atoms: _312  and  _314
REMARK  126  A    between atoms: _314  and  _315
REMARK  127  A    between atoms: _314  and  _317
REMARK  128  A    between atoms: _317  and  _318
REMARK  129  A    between atoms: _318  and  _319
REMARK  130  A    between atoms: _325  and  _326
REMARK  131  A    between atoms: _331  and  _333
REMARK  132  A    between atoms: _333  and  _334
REMARK  133  A    between atoms: _333  and  _336
REMARK  134  A    between atoms: _336  and  _337
REMARK  135  A    between atoms: _342  and  _344
REMARK  136  A    between atoms: _344  and  _345
REMARK  137  A    between atoms: _344  and  _347
REMARK  138  A    between atoms: _347  and  _348
REMARK  139  A    between atoms: _348  and  _349
REMARK  140  A    between atoms: _352  and  _354
REMARK  141  A    between atoms: _354  and  _355
REMARK  142  A    between atoms: _354  and  _357
REMARK  143  A    between atoms: _357  and  _358
REMARK  144  A    between atoms: _360  and  _362
REMARK  145  A    between atoms: _362  and  _363
REMARK  146  A    between atoms: _362  and  _365
REMARK  147  A    between atoms: _365  and  _366
REMARK  148  A    between atoms: _369  and  _371
REMARK  149  A    between atoms: _371  and  _372
REMARK  150  A    between atoms: _371  and  _374
REMARK  151  A    between atoms: _374  and  _375
REMARK  152  A    between atoms: _377  and  _379
REMARK  153  A    between atoms: _379  and  _380
REMARK  154  A    between atoms: _379  and  _382
REMARK  155  A    between atoms: _382  and  _383
REMARK  156  A    between atoms: _386  and  _388
REMARK  157  A    between atoms: _388  and  _389
REMARK  158  A    between atoms: _388  and  _391
REMARK  159  A    between atoms: _391  and  _392
REMARK  160  A    between atoms: _395  and  _397
REMARK  161  A    between atoms: _397  and  _398
REMARK  162  A    between atoms: _397  and  _400
REMARK  163  A    between atoms: _400  and  _401
REMARK  164  A    between atoms: _401  and  _402
REMARK  165  A    between atoms: _407  and  _409
REMARK  166  A    between atoms: _409  and  _410
REMARK  167  A    between atoms: _409  and  _412
REMARK  168  A    between atoms: _412  and  _413
REMARK  169  A    between atoms: _419  and  _421
REMARK  170  A    between atoms: _421  and  _422
REMARK  171  A    between atoms: _421  and  _424
REMARK  172  A    between atoms: _426  and  _428
REMARK  173  A    between atoms: _428  and  _429
REMARK  174  A    between atoms: _432  and  _434
REMARK  175  A    between atoms: _434  and  _435
REMARK  176  A    between atoms: _437  and  _439
REMARK  177  A    between atoms: _439  and  _440
REMARK  178  A    between atoms: _442  and  _444
REMARK  179  A    between atoms: _444  and  _445
REMARK  180  A    between atoms: _444  and  _447
REMARK  181  A    between atoms: _447  and  _448
REMARK  182  A    between atoms: _451  and  _453
REMARK  183  A    between atoms: _453  and  _454
REMARK  184  A    between atoms: _456  and  _458
REMARK  185  A    between atoms: _458  and  _459
REMARK  186  A    between atoms: _458  and  _461
REMARK  187  A    between atoms: _461  and  _462
REMARK  188  A    between atoms: _468  and  _470
REMARK  189  A    between atoms: _470  and  _471
REMARK  190  A    between atoms: _470  and  _473
REMARK  191  A    between atoms: _476  and  _478
REMARK  192  A    between atoms: _478  and  _479
REMARK  193  A    between atoms: _478  and  _481
REMARK  194  A    between atoms: _481  and  _482
REMARK  195  A    between atoms: _485  and  _487
REMARK  196  A    between atoms: _487  and  _488
REMARK  197  A    between atoms: _490  and  _492
REMARK  198  A    between atoms: _492  and  _493
REMARK  199  A    between atoms: _492  and  _495
REMARK  200  A    between atoms: _495  and  _496
REMARK  201  A    between atoms: _496  and  _497
REMARK  202  A    between atoms: _497  and  MG_734
REMARK  203  A    between atoms: _499  and  _501
REMARK  204  A    between atoms: _501  and  _502
REMARK  205  A    between atoms: _504  and  _506
REMARK  206  A    between atoms: _506  and  _507
REMARK  207  A    between atoms: _506  and  _509
REMARK  208  A    between atoms: _509  and  _510
REMARK  209  A    between atoms: _512  and  _514
REMARK  210  A    between atoms: _514  and  _515
REMARK  211  A    between atoms: _518  and  _520
REMARK  212  A    between atoms: _520  and  _521
REMARK  213  A    between atoms: _520  and  _523
REMARK  214  A    between atoms: _523  and  _524
REMARK  215  A    between atoms: _529  and  _531
REMARK  216  A    between atoms: _531  and  _532
REMARK  217  A    between atoms: _531  and  _534
REMARK  218  A    between atoms: _534  and  _535
REMARK  219  A    between atoms: _540  and  _541
REMARK  220  A    between atoms: _543  and  _545
REMARK  221  A    between atoms: _545  and  _546
REMARK  222  A    between atoms: _545  and  _548
REMARK  223  A    between atoms: _548  and  _549
REMARK  224  A    between atoms: _552  and  _554
REMARK  225  A    between atoms: _554  and  _555
REMARK  226  A    between atoms: _554  and  _557
REMARK  227  A    between atoms: _557  and  _558
REMARK  228  A    between atoms: _558  and  _559
REMARK  229  A    between atoms: _561  and  _563
REMARK  230  A    between atoms: _563  and  _564
REMARK  231  A    between atoms: _563  and  _566
REMARK  232  A    between atoms: _566  and  _567
REMARK  233  A    between atoms: _572  and  _574
REMARK  234  A    between atoms: _574  and  _575
REMARK  235  A    between atoms: _574  and  _577
REMARK  236  A    between atoms: _577  and  _578
REMARK  237  A    between atoms: _583  and  _585
REMARK  238  A    between atoms: _585  and  _586
REMARK  239  A    between atoms: _588  and  _590
REMARK  240  A    between atoms: _590  and  _591
REMARK  241  A    between atoms: _590  and  _593
REMARK  242  A    between atoms: _591  and  _592
REMARK  243  A    between atoms: _591  and  _597
REMARK  244  A    between atoms: _592  and  MG_734
REMARK  245  A    between atoms: _593  and  _594
REMARK  246  A    between atoms: _597  and  _599
REMARK  247  A    between atoms: _599  and  _600
REMARK  248  A    between atoms: _599  and  _602
REMARK  249  A    between atoms: _602  and  _603
REMARK  250  A    between atoms: _608  and  _609
REMARK  251  A    between atoms: _611  and  _613
REMARK  252  A    between atoms: _613  and  _614
REMARK  253  A    between atoms: _616  and  _618
REMARK  254  A    between atoms: _618  and  _619
REMARK  255  A    between atoms: _622  and  _624
REMARK  256  A    between atoms: _624  and  _625
REMARK  257  A    between atoms: _624  and  _627
REMARK  258  A    between atoms: _627  and  _628
REMARK  259  A    between atoms: _631  and  _633
REMARK  260  A    between atoms: _633  and  _634
REMARK  261  A    between atoms: _633  and  _636
REMARK  262  A    between atoms: _636  and  _637
REMARK  263  A    between atoms: _637  and  _638
REMARK  264  A    between atoms: _638  and  _639
REMARK  265  A    between atoms: _648  and  _650
REMARK  266  A    between atoms: _650  and  _651
REMARK  267  A    between atoms: _650  and  _653
REMARK  268  A    between atoms: _653  and  _654
REMARK  269  A    between atoms: _664  and  _666
REMARK  270  A    between atoms: _666  and  _667
REMARK  271  A    between atoms: _666  and  _669
REMARK  272  A    between atoms: _669  and  _670
REMARK  273  A    between atoms: _676  and  _678
REMARK  274  A    between atoms: _678  and  _679
REMARK  275  A    between atoms: _681  and  _683
REMARK  276  A    between atoms: _683  and  _684
REMARK  277  A    between atoms: _683  and  _686
REMARK  278  A    between atoms: _686  and  _687
REMARK  279  A    between atoms: _690  and  _692
REMARK  280  A    between atoms: _692  and  _693
REMARK  281  A    between atoms: _692  and  _695
REMARK  282  A    between atoms: _698  and  _700
REMARK  283  A    between atoms: _700  and  _701
REMARK  284  A    between atoms: _700  and  _703
REMARK  285  A    between atoms: _703  and  _704
REMARK  286  A    between atoms: _710  and  _712
REMARK  287  A    between atoms: _712  and  _713
REMARK  288  A    between atoms: _712  and  _715
REMARK  289  A    between atoms: _715  and  _716
REMARK  290  A    between atoms: _719  and  _721
REMARK  291  A    between atoms: _721  and  _722
REMARK  292  A    between atoms: _721  and  _724
REMARK  293  A    between atoms: _728  and  _729
REMARK                            x       y       z     vdW  Elec       q    Type
REMARK                         _______ _______ _______ _____ _____    ______ ____
ROOT
ATOM      1  C   SER A   1      67.634  65.810 155.434  0.00  0.00    +0.241 C 
ATOM      2  N   ALA A   2      67.655  66.883 156.230  0.00  0.00    -0.298 N 
ATOM      3  H   ALA A   2      66.825  67.087 156.823  0.00  0.00    +0.150 HD
ATOM      4  O   SER A   1      68.636  65.343 154.906  0.00  0.00    -0.274 OA
ENDROOT
BRANCH   2   5
ATOM      5  CA  ALA A   2      68.793  67.767 156.293  0.00  0.00    +0.137 C 
ATOM      6  CB  ALA A   2      68.361  69.056 157.106  0.00  0.00    +0.030 C 
BRANCH   5   7
ATOM      7  C   ALA A   2      69.988  67.153 156.978  0.00  0.00    +0.227 C 
ATOM      8  O   ALA A   2      69.916  66.857 158.158  0.00  0.00    -0.286 OA
ENDBRANCH   5   7
ENDBRANCH   2   5
BRANCH   1   9
ATOM      9  CA  SER A   1      66.336  65.121 155.203  0.00  0.00    +0.174 C 
BRANCH   9  10
ATOM     10  N   SER A   1      65.303  66.139 154.998  0.00  0.00    -0.236 NA
ATOM     11  H   SER A   1      64.521  66.199 155.681  0.00  0.00    +0.142 HD
ENDBRANCH   9  10
BRANCH   9  12
ATOM     12  CB  SER A   1      66.417  64.065 154.062  0.00  0.00    +0.163 C 
BRANCH  12  13
ATOM     13  OG  SER A   1      65.088  63.481 153.890  0.00  0.00    -0.380 OA
ATOM     14  H   SER A   1      64.806  63.050 154.736  0.00  0.00    +0.211 HD
ENDBRANCH  12  13
ENDBRANCH   9  12
ENDBRANCH   1   9
TORSDOF 6
REMARK  Name = ../refined-set-2016/3f6e/3f6e_pocket.pdb
REMARK  293 active torsions:
REMARK  status: ('A' for Active; 'I' for Inactive)
REMARK    1  A    between atoms: _1  and  _3
REMARK    2  A    between atoms: _3  and  _4
REMARK    3  A    between atoms: _3  and  _6
REMARK    4  A    between atoms: _6  and  _7
REMARK    5  A    between atoms: _13  and  _14
REMARK    6  A    between atoms: _19  and  _21
REMARK    7  A    between atoms: _21  and  _22
REMARK    8  A    between atoms: _24  and  _26
REMARK    9  A    between atoms: _26  and  _27
REMARK   10  A    between atoms: _26  and  _29
REMARK   11  A    between atoms: _29  and  _30
REMARK   12  A    between atoms: _32  and  _34
REMARK   13  A    between atoms: _34  and  _35
REMARK   14  A    between atoms: _34  and  _37
REMARK   15  A    between atoms: _37  and  _38
REMARK   16  A    between atoms: _43  and  _45
REMARK   17  A    between atoms: _45  and  _46
REMARK   18  A    between atoms: _45  and  _48
REMARK   19  A    between atoms: _48  and  _49
REMARK   20  A    between atoms: _49  and  _50
REMARK   21  A    between atoms: _53  and  _55
REMARK   22  A    between atoms: _55  and  _56
REMARK   23  A    between atoms: _55  and  _58
REMARK   24  A    between atoms: _58  and  _59
REMARK   25  A    between atoms: _62  and  _64
REMARK   26  A    between atoms: _64  and  _65
REMARK   27  A    between atoms: _64  and  _67
REMARK   28  A    between atoms: _67  and  _68
REMARK   29  A    between atoms: _71  and  _73
REMARK   30  A    between atoms: _73  and  _74
REMARK   31  A    between atoms: _77  and  _79
REMARK   32  A    between atoms: _79  and  _80
REMARK   33  A    between atoms: _79  and  _82
REMARK   34  A    between atoms: _82  and  _83
REMARK   35  A    between atoms: _86  and  _88
REMARK   36  A    between atoms: _88  and  _89
REMARK   37  A    between atoms: _88  and  _91
REMARK   38  A    between atoms: _91  and  _92
REMARK   39  A    between atoms: _92  and  _93
REMARK   40  A    between atoms: _98  and  _100
REMARK   41  A    between atoms: _100  and  _101
REMARK   42  A    between atoms: _100  and  _103
REMARK   43  A    between atoms: _103  and  _104
REMARK   44  A    between atoms: _104  and  _105
REMARK   45  A    between atoms: _108  and  _110
REMARK   46  A    between atoms: _110  and  _111
REMARK   47  A    between atoms: _114  and  _116
REMARK   48  A    between atoms: _116  and  _117
REMARK   49  A    between atoms: _116  and  _119
REMARK   50  A    between atoms: _119  and  _120
REMARK   51  A    between atoms: _123  and  _125
REMARK   52  A    between atoms: _125  and  _126
REMARK   53  A    between atoms: _125  and  _128
REMARK   54  A    between atoms: _128  and  _129
REMARK   55  A    between atoms: _134  and  _136
REMARK   56  A    between atoms: _136  and  _137
REMARK   57  A    between atoms: _136  and  _139
REMARK   58  A    between atoms: _139  and  _140
REMARK   59  A    between atoms: _142  and  _144
REMARK   60  A    between atoms: _144  and  _145
REMARK   61  A    between atoms: _148  and  _150
REMARK   62  A    between atoms: _150  and  _151
REMARK   63  A    between atoms: _154  and  _156
REMARK   64  A    between atoms: _156  and  _157
REMARK   65  A    between atoms: _159  and  _161
REMARK   66  A    between atoms: _161  and  _162
REMARK   67  A    between atoms: _161  and  _164
REMARK   68  A    between atoms: _164  and  _165
REMARK   69  A    between atoms: _168  and  _170
REMARK   70  A    between atoms: _170  and  _171
REMARK   71  A    between atoms: _173  and  _175
REMARK   72  A    between atoms: _175  and  _176
REMARK   73  A    between atoms: _175  and  _178
REMARK   74  A    between atoms: _178  and  _179
REMARK   75  A    between atoms: _184  and  _186
REMARK   76  A    between atoms: _186  and  _187
REMARK   77  A    between atoms: _190  and  _192
REMARK   78  A    between atoms: _192  and  _193
REMARK   79  A    between atoms: _192  and  _195
REMARK   80  A    between atoms: _195  and  _196
REMARK   81  A    between atoms: _196  and  _197
REMARK   82  A    between atoms: _202  and  _204
REMARK   83  A    between atoms: _204  and  _205
REMARK   84  A    between atoms: _204  and  _207
REMARK   85  A    between atoms: _207  and  _208
REMARK   86  A    between atoms: _211  and  _213
REMARK   87  A    between atoms: _213  and  _214
REMARK   88  A    between atoms: _213  and  _216
REMARK   89  A    between atoms: _216  and  _217
REMARK   90  A    between atoms: _220  and  _222
REMARK   91  A    between atoms: _222  and  _223
REMARK   92  A    between atoms: _225  and  _227
REMARK   93  A    between atoms: _227  and  _228
REMARK   94  A    between atoms: _231  and  _233
REMARK   95  A    between atoms: _233  and  _234
REMARK   96  A    between atoms: _233  and  _236
REMARK   97  A    between atoms: _236  and  _237
REMARK   98  A    between atoms: _239  and  _241
REMARK   99  A    between atoms: _241  and  _242
REMARK  100  A    between atoms: _241  and  _244
REMARK  101  A    between atoms: _244  and  _245
REMARK  102  A    between atoms: _250  and  _252
REMARK  103  A    between atoms: _252  and  _253
REMARK  104  A    between atoms: _252  and  _255
REMARK  105  A    between atoms: _255  and  _256
REMARK  106  A    between atoms: _258  and  _260
REMARK  107  A    between atoms: _260  and  _261
REMARK  108  A    between atoms: _264  and  _266
REMARK  109  A    between atoms: _266  and  _267
REMARK  110  A    between atoms: _270  and  _272
REMARK  111  A    between atoms: _272  and  _273
REMARK  112  A    between atoms: _272  and  _275
REMARK  113  A    between atoms: _275  and  _276
REMARK  114  A    between atoms: _276  and  _277
REMARK  115  A    between atoms: _277  and  _278
REMARK  116  A    between atoms: _287  and  _289
REMARK  117  A    between atoms: _289  and  _290
REMARK  118  A    between atoms: _289  and  _292
REMARK  119  A    between atoms: _292  and  _293
REMARK  120  A    between atoms: _298  and  _299
REMARK  121  A    between atoms: _301  and  _303
REMARK  122  A    between atoms: _303  and  _304
REMARK  123  A    between atoms: _303  and  _306
REMARK  124  A    between atoms: _306  and  _307
REMARK  125  A    between atoms: _312  and  _314
REMARK  126  A    between atoms: _314  and  _315
REMARK  127  A    between atoms: _314  and  _317
REMARK  128  A    between atoms: _317  and  _318
REMARK  129  A    between atoms: _318  and  _319
REMARK  130  A    between atoms: _325  and  _326
REMARK  131  A    between atoms: _331  and  _333
REMARK  132  A    between atoms: _333  and  _334
REMARK  133  A    between atoms: _333  and  _336
REMARK  134  A    between atoms: _336  and  _337
REMARK  135  A    between atoms: _342  and  _344
REMARK  136  A    between atoms: _344  and  _345
REMARK  137  A    between atoms: _344  and  _347
REMARK  138  A    between atoms: _347  and  _348
REMARK  139  A    between atoms: _348  and  _349
REMARK  140  A    between atoms: _352  and  _354
REMARK  141  A    between atoms: _354  and  _355
REMARK  142  A    between atoms: _354  and  _357
REMARK  143  A    between atoms: _357  and  _358
REMARK  144  A    between atoms: _360  and  _362
REMARK  145  A    between atoms: _362  and  _363
REMARK  146  A    between atoms: _362  and  _365
REMARK  147  A    between atoms: _365  and  _366
REMARK  148  A    between atoms: _369  and  _371
REMARK  149  A    between atoms: _371  and  _372
REMARK  150  A    between atoms: _371  and  _374
REMARK  151  A    between atoms: _374  and  _375
REMARK  152  A    between atoms: _377  and  _379
REMARK  153  A    between atoms: _379  and  _380
REMARK  154  A    between atoms: _379  and  _382
REMARK  155  A    between atoms: _382  and  _383
REMARK  156  A    between atoms: _386  and  _388
REMARK  157  A    between atoms: _388  and  _389
REMARK  158  A    between atoms: _388  and  _391
REMARK  159  A    between atoms: _391  and  _392
REMARK  160  A    between atoms: _395  and  _397
REMARK  161  A    between atoms: _397  and  _398
REMARK  162  A    between atoms: _397  and  _400
REMARK  163  A    between atoms: _400  and  _401
REMARK  164  A    between atoms: _401  and  _402
REMARK  165  A    between atoms: _407  and  _409
REMARK  166  A    between atoms: _409  and  _410
REMARK  167  A    between atoms: _409  and  _412
REMARK  168  A    between atoms: _412  and  _413
REMARK  169  A    between atoms: _419  and  _421
REMARK  170  A    between atoms: _421  and  _422
REMARK  171  A    between atoms: _421  and  _424
REMARK  172  A    between atoms: _426  and  _428
REMARK  173  A    between atoms: _428  and  _429
REMARK  174  A    between atoms: _432  and  _434
REMARK  175  A    between atoms: _434  and  _435
REMARK  176  A    between atoms: _437  and  _439
REMARK  177  A    between atoms: _439  and  _440
REMARK  178  A    between atoms: _442  and  _444
REMARK  179  A    between atoms: _444  and  _445
REMARK  180  A    between atoms: _444  and  _447
REMARK  181  A    between atoms: _447  and  _448
REMARK  182  A    between atoms: _451  and  _453
REMARK  183  A    between atoms: _453  and  _454
REMARK  184  A    between atoms: _456  and  _458
REMARK  185  A    between atoms: _458  and  _459
REMARK  186  A    between atoms: _458  and  _461
REMARK  187  A    between atoms: _461  and  _462
REMARK  188  A    between atoms: _468  and  _470
REMARK  189  A    between atoms: _470  and  _471
REMARK  190  A    between atoms: _470  and  _473
REMARK  191  A    between atoms: _476  and  _478
REMARK  192  A    between atoms: _478  and  _479
REMARK  193  A    between atoms: _478  and  _481
REMARK  194  A    between atoms: _481  and  _482
REMARK  195  A    between atoms: _485  and  _487
REMARK  196  A    between atoms: _487  and  _488
REMARK  197  A    between atoms: _490  and  _492
REMARK  198  A    between atoms: _492  and  _493
REMARK  199  A    between atoms: _492  and  _495
REMARK  200  A    between atoms: _495  and  _496
REMARK  201  A    between atoms: _496  and  _497
REMARK  202  A    between atoms: _497  and  MG_734
REMARK  203  A    between atoms: _499  and  _501
REMARK  204  A    between atoms: _501  and  _502
REMARK  205  A    between atoms: _504  and  _506
REMARK  206  A    between atoms: _506  and  _507
REMARK  207  A    between atoms: _506  and  _509
REMARK  208  A    between atoms: _509  and  _510
REMARK  209  A    between atoms: _512  and  _514
REMARK  210  A    between atoms: _514  and  _515
REMARK  211  A    between atoms: _518  and  _520
REMARK  212  A    between atoms: _520  and  _521
REMARK  213  A    between atoms: _520  and  _523
REMARK  214  A    between atoms: _523  and  _524
REMARK  215  A    between atoms: _529  and  _531
REMARK  216  A    between atoms: _531  and  _532
REMARK  217  A    between atoms: _531  and  _534
REMARK  218  A    between atoms: _534  and  _535
REMARK  219  A    between atoms: _540  and  _541
REMARK  220  A    between atoms: _543  and  _545
REMARK  221  A    between atoms: _545  and  _546
REMARK  222  A    between atoms: _545  and  _548
REMARK  223  A    between atoms: _548  and  _549
REMARK  224  A    between atoms: _552  and  _554
REMARK  225  A    between atoms: _554  and  _555
REMARK  226  A    between atoms: _554  and  _557
REMARK  227  A    between atoms: _557  and  _558
REMARK  228  A    between atoms: _558  and  _559
REMARK  229  A    between atoms: _561  and  _563
REMARK  230  A    between atoms: _563  and  _564
REMARK  231  A    between atoms: _563  and  _566
REMARK  232  A    between atoms: _566  and  _567
REMARK  233  A    between atoms: _572  and  _574
REMARK  234  A    between atoms: _574  and  _575
REMARK  235  A    between atoms: _574  and  _577
REMARK  236  A    between atoms: _577  and  _578
REMARK  237  A    between atoms: _583  and  _585
REMARK  238  A    between atoms: _585  and  _586
REMARK  239  A    between atoms: _588  and  _590
REMARK  240  A    between atoms: _590  and  _591
REMARK  241  A    between atoms: _590  and  _593
REMARK  242  A    between atoms: _591  and  _592
REMARK  243  A    between atoms: _591  and  _597
REMARK  244  A    between atoms: _592  and  MG_734
REMARK  245  A    between atoms: _593  and  _594
REMARK  246  A    between atoms: _597  and  _599
REMARK  247  A    between atoms: _599  and  _600
REMARK  248  A    between atoms: _599  and  _602
REMARK  249  A    between atoms: _602  and  _603
REMARK  250  A    between atoms: _608  and  _609
REMARK  251  A    between atoms: _611  and  _613
REMARK  252  A    between atoms: _613  and  _614
REMARK  253  A    between atoms: _616  and  _618
REMARK  254  A    between atoms: _618  and  _619
REMARK  255  A    between atoms: _622  and  _624
REMARK  256  A    between atoms: _624  and  _625
REMARK  257  A    between atoms: _624  and  _627
REMARK  258  A    between atoms: _627  and  _628
REMARK  259  A    between atoms: _631  and  _633
REMARK  260  A    between atoms: _633  and  _634
REMARK  261  A    between atoms: _633  and  _636
REMARK  262  A    between atoms: _636  and  _637
REMARK  263  A    between atoms: _637  and  _638
REMARK  264  A    between atoms: _638  and  _639
REMARK  265  A    between atoms: _648  and  _650
REMARK  266  A    between atoms: _650  and  _651
REMARK  267  A    between atoms: _650  and  _653
REMARK  268  A    between atoms: _653  and  _654
REMARK  269  A    between atoms: _664  and  _666
REMARK  270  A    between atoms: _666  and  _667
REMARK  271  A    between atoms: _666  and  _669
REMARK  272  A    between atoms: _669  and  _670
REMARK  273  A    between atoms: _676  and  _678
REMARK  274  A    between atoms: _678  and  _679
REMARK  275  A    between atoms: _681  and  _683
REMARK  276  A    between atoms: _683  and  _684
REMARK  277  A    between atoms: _683  and  _686
REMARK  278  A    between atoms: _686  and  _687
REMARK  279  A    between atoms: _690  and  _692
REMARK  280  A    between atoms: _692  and  _693
REMARK  281  A    between atoms: _692  and  _695
REMARK  282  A    between atoms: _698  and  _700
REMARK  283  A    between atoms: _700  and  _701
REMARK  284  A    between atoms: _700  and  _703
REMARK  285  A    between atoms: _703  and  _704
REMARK  286  A    between atoms: _710  and  _712
REMARK  287  A    between atoms: _712  and  _713
REMARK  288  A    between atoms: _712  and  _715
REMARK  289  A    between atoms: _715  and  _716
REMARK  290  A    between atoms: _719  and  _721
REMARK  291  A    between atoms: _721  and  _722
REMARK  292  A    between atoms: _721  and  _724
REMARK  293  A    between atoms: _728  and  _729
REMARK                            x       y       z     vdW  Elec       q    Type
REMARK                         _______ _______ _______ _____ _____    ______ ____
ROOT
ATOM      1  CA  ALA A   1      60.199  65.134 153.384  0.00  0.00    +0.133 C 
ATOM      2  CB  ALA A   1      61.221  64.160 153.891  0.00  0.00    +0.027 C 
ENDROOT
BRANCH   1   3
ATOM      3  N   ALA A   1      59.591  65.785 154.558  0.00  0.00    -0.239 NA
ATOM      4  H   ALA A   1      59.549  65.281 155.467  0.00  0.00    +0.142 HD
ENDBRANCH   1   3
BRANCH   1   5
ATOM      5  C   ALA A   1      59.153  64.434 152.496  0.00  0.00    +0.224 C 
ATOM      6  O   ALA A   1      59.302  63.242 152.173  0.00  0.00    -0.287 OA
ENDBRANCH   1   5
TORSDOF 2
REMARK  Name = ../refined-set-2016/3f6e/3f6e_pocket.pdb
REMARK  293 active torsions:
REMARK  status: ('A' for Active; 'I' for Inactive)
REMARK    1  A    between atoms: _1  and  _3
REMARK    2  A    between atoms: _3  and  _4
REMARK    3  A    between atoms: _3  and  _6
REMARK    4  A    between atoms: _6  and  _7
REMARK    5  A    between atoms: _13  and  _14
REMARK    6  A    between atoms: _19  and  _21
REMARK    7  A    between atoms: _21  and  _22
REMARK    8  A    between atoms: _24  and  _26
REMARK    9  A    between atoms: _26  and  _27
REMARK   10  A    between atoms: _26  and  _29
REMARK   11  A    between atoms: _29  and  _30
REMARK   12  A    between atoms: _32  and  _34
REMARK   13  A    between atoms: _34  and  _35
REMARK   14  A    between atoms: _34  and  _37
REMARK   15  A    between atoms: _37  and  _38
REMARK   16  A    between atoms: _43  and  _45
REMARK   17  A    between atoms: _45  and  _46
REMARK   18  A    between atoms: _45  and  _48
REMARK   19  A    between atoms: _48  and  _49
REMARK   20  A    between atoms: _49  and  _50
REMARK   21  A    between atoms: _53  and  _55
REMARK   22  A    between atoms: _55  and  _56
REMARK   23  A    between atoms: _55  and  _58
REMARK   24  A    between atoms: _58  and  _59
REMARK   25  A    between atoms: _62  and  _64
REMARK   26  A    between atoms: _64  and  _65
REMARK   27  A    between atoms: _64  and  _67
REMARK   28  A    between atoms: _67  and  _68
REMARK   29  A    between atoms: _71  and  _73
REMARK   30  A    between atoms: _73  and  _74
REMARK   31  A    between atoms: _77  and  _79
REMARK   32  A    between atoms: _79  and  _80
REMARK   33  A    between atoms: _79  and  _82
REMARK   34  A    between atoms: _82  and  _83
REMARK   35  A    between atoms: _86  and  _88
REMARK   36  A    between atoms: _88  and  _89
REMARK   37  A    between atoms: _88  and  _91
REMARK   38  A    between atoms: _91  and  _92
REMARK   39  A    between atoms: _92  and  _93
REMARK   40  A    between atoms: _98  and  _100
REMARK   41  A    between atoms: _100  and  _101
REMARK   42  A    between atoms: _100  and  _103
REMARK   43  A    between atoms: _103  and  _104
REMARK   44  A    between atoms: _104  and  _105
REMARK   45  A    between atoms: _108  and  _110
REMARK   46  A    between atoms: _110  and  _111
REMARK   47  A    between atoms: _114  and  _116
REMARK   48  A    between atoms: _116  and  _117
REMARK   49  A    between atoms: _116  and  _119
REMARK   50  A    between atoms: _119  and  _120
REMARK   51  A    between atoms: _123  and  _125
REMARK   52  A    between atoms: _125  and  _126
REMARK   53  A    between atoms: _125  and  _128
REMARK   54  A    between atoms: _128  and  _129
REMARK   55  A    between atoms: _134  and  _136
REMARK   56  A    between atoms: _136  and  _137
REMARK   57  A    between atoms: _136  and  _139
REMARK   58  A    between atoms: _139  and  _140
REMARK   59  A    between atoms: _142  and  _144
REMARK   60  A    between atoms: _144  and  _145
REMARK   61  A    between atoms: _148  and  _150
REMARK   62  A    between atoms: _150  and  _151
REMARK   63  A    between atoms: _154  and  _156
REMARK   64  A    between atoms: _156  and  _157
REMARK   65  A    between atoms: _159  and  _161
REMARK   66  A    between atoms: _161  and  _162
REMARK   67  A    between atoms: _161  and  _164
REMARK   68  A    between atoms: _164  and  _165
REMARK   69  A    between atoms: _168  and  _170
REMARK   70  A    between atoms: _170  and  _171
REMARK   71  A    between atoms: _173  and  _175
REMARK   72  A    between atoms: _175  and  _176
REMARK   73  A    between atoms: _175  and  _178
REMARK   74  A    between atoms: _178  and  _179
REMARK   75  A    between atoms: _184  and  _186
REMARK   76  A    between atoms: _186  and  _187
REMARK   77  A    between atoms: _190  and  _192
REMARK   78  A    between atoms: _192  and  _193
REMARK   79  A    between atoms: _192  and  _195
REMARK   80  A    between atoms: _195  and  _196
REMARK   81  A    between atoms: _196  and  _197
REMARK   82  A    between atoms: _202  and  _204
REMARK   83  A    between atoms: _204  and  _205
REMARK   84  A    between atoms: _204  and  _207
REMARK   85  A    between atoms: _207  and  _208
REMARK   86  A    between atoms: _211  and  _213
REMARK   87  A    between atoms: _213  and  _214
REMARK   88  A    between atoms: _213  and  _216
REMARK   89  A    between atoms: _216  and  _217
REMARK   90  A    between atoms: _220  and  _222
REMARK   91  A    between atoms: _222  and  _223
REMARK   92  A    between atoms: _225  and  _227
REMARK   93  A    between atoms: _227  and  _228
REMARK   94  A    between atoms: _231  and  _233
REMARK   95  A    between atoms: _233  and  _234
REMARK   96  A    between atoms: _233  and  _236
REMARK   97  A    between atoms: _236  and  _237
REMARK   98  A    between atoms: _239  and  _241
REMARK   99  A    between atoms: _241  and  _242
REMARK  100  A    between atoms: _241  and  _244
REMARK  101  A    between atoms: _244  and  _245
REMARK  102  A    between atoms: _250  and  _252
REMARK  103  A    between atoms: _252  and  _253
REMARK  104  A    between atoms: _252  and  _255
REMARK  105  A    between atoms: _255  and  _256
REMARK  106  A    between atoms: _258  and  _260
REMARK  107  A    between atoms: _260  and  _261
REMARK  108  A    between atoms: _264  and  _266
REMARK  109  A    between atoms: _266  and  _267
REMARK  110  A    between atoms: _270  and  _272
REMARK  111  A    between atoms: _272  and  _273
REMARK  112  A    between atoms: _272  and  _275
REMARK  113  A    between atoms: _275  and  _276
REMARK  114  A    between atoms: _276  and  _277
REMARK  115  A    between atoms: _277  and  _278
REMARK  116  A    between atoms: _287  and  _289
REMARK  117  A    between atoms: _289  and  _290
REMARK  118  A    between atoms: _289  and  _292
REMARK  119  A    between atoms: _292  and  _293
REMARK  120  A    between atoms: _298  and  _299
REMARK  121  A    between atoms: _301  and  _303
REMARK  122  A    between atoms: _303  and  _304
REMARK  123  A    between atoms: _303  and  _306
REMARK  124  A    between atoms: _306  and  _307
REMARK  125  A    between atoms: _312  and  _314
REMARK  126  A    between atoms: _314  and  _315
REMARK  127  A    between atoms: _314  and  _317
REMARK  128  A    between atoms: _317  and  _318
REMARK  129  A    between atoms: _318  and  _319
REMARK  130  A    between atoms: _325  and  _326
REMARK  131  A    between atoms: _331  and  _333
REMARK  132  A    between atoms: _333  and  _334
REMARK  133  A    between atoms: _333  and  _336
REMARK  134  A    between atoms: _336  and  _337
REMARK  135  A    between atoms: _342  and  _344
REMARK  136  A    between atoms: _344  and  _345
REMARK  137  A    between atoms: _344  and  _347
REMARK  138  A    between atoms: _347  and  _348
REMARK  139  A    between atoms: _348  and  _349
REMARK  140  A    between atoms: _352  and  _354
REMARK  141  A    between atoms: _354  and  _355
REMARK  142  A    between atoms: _354  and  _357
REMARK  143  A    between atoms: _357  and  _358
REMARK  144  A    between atoms: _360  and  _362
REMARK  145  A    between atoms: _362  and  _363
REMARK  146  A    between atoms: _362  and  _365
REMARK  147  A    between atoms: _365  and  _366
REMARK  148  A    between atoms: _369  and  _371
REMARK  149  A    between atoms: _371  and  _372
REMARK  150  A    between atoms: _371  and  _374
REMARK  151  A    between atoms: _374  and  _375
REMARK  152  A    between atoms: _377  and  _379
REMARK  153  A    between atoms: _379  and  _380
REMARK  154  A    between atoms: _379  and  _382
REMARK  155  A    between atoms: _382  and  _383
REMARK  156  A    between atoms: _386  and  _388
REMARK  157  A    between atoms: _388  and  _389
REMARK  158  A    between atoms: _388  and  _391
REMARK  159  A    between atoms: _391  and  _392
REMARK  160  A    between atoms: _395  and  _397
REMARK  161  A    between atoms: _397  and  _398
REMARK  162  A    between atoms: _397  and  _400
REMARK  163  A    between atoms: _400  and  _401
REMARK  164  A    between atoms: _401  and  _402
REMARK  165  A    between atoms: _407  and  _409
REMARK  166  A    between atoms: _409  and  _410
REMARK  167  A    between atoms: _409  and  _412
REMARK  168  A    between atoms: _412  and  _413
REMARK  169  A    between atoms: _419  and  _421
REMARK  170  A    between atoms: _421  and  _422
REMARK  171  A    between atoms: _421  and  _424
REMARK  172  A    between atoms: _426  and  _428
REMARK  173  A    between atoms: _428  and  _429
REMARK  174  A    between atoms: _432  and  _434
REMARK  175  A    between atoms: _434  and  _435
REMARK  176  A    between atoms: _437  and  _439
REMARK  177  A    between atoms: _439  and  _440
REMARK  178  A    between atoms: _442  and  _444
REMARK  179  A    between atoms: _444  and  _445
REMARK  180  A    between atoms: _444  and  _447
REMARK  181  A    between atoms: _447  and  _448
REMARK  182  A    between atoms: _451  and  _453
REMARK  183  A    between atoms: _453  and  _454
REMARK  184  A    between atoms: _456  and  _458
REMARK  185  A    between atoms: _458  and  _459
REMARK  186  A    between atoms: _458  and  _461
REMARK  187  A    between atoms: _461  and  _462
REMARK  188  A    between atoms: _468  and  _470
REMARK  189  A    between atoms: _470  and  _471
REMARK  190  A    between atoms: _470  and  _473
REMARK  191  A    between atoms: _476  and  _478
REMARK  192  A    between atoms: _478  and  _479
REMARK  193  A    between atoms: _478  and  _481
REMARK  194  A    between atoms: _481  and  _482
REMARK  195  A    between atoms: _485  and  _487
REMARK  196  A    between atoms: _487  and  _488
REMARK  197  A    between atoms: _490  and  _492
REMARK  198  A    between atoms: _492  and  _493
REMARK  199  A    between atoms: _492  and  _495
REMARK  200  A    between atoms: _495  and  _496
REMARK  201  A    between atoms: _496  and  _497
REMARK  202  A    between atoms: _497  and  MG_734
REMARK  203  A    between atoms: _499  and  _501
REMARK  204  A    between atoms: _501  and  _502
REMARK  205  A    between atoms: _504  and  _506
REMARK  206  A    between atoms: _506  and  _507
REMARK  207  A    between atoms: _506  and  _509
REMARK  208  A    between atoms: _509  and  _510
REMARK  209  A    between atoms: _512  and  _514
REMARK  210  A    between atoms: _514  and  _515
REMARK  211  A    between atoms: _518  and  _520
REMARK  212  A    between atoms: _520  and  _521
REMARK  213  A    between atoms: _520  and  _523
REMARK  214  A    between atoms: _523  and  _524
REMARK  215  A    between atoms: _529  and  _531
REMARK  216  A    between atoms: _531  and  _532
REMARK  217  A    between atoms: _531  and  _534
REMARK  218  A    between atoms: _534  and  _535
REMARK  219  A    between atoms: _540  and  _541
REMARK  220  A    between atoms: _543  and  _545
REMARK  221  A    between atoms: _545  and  _546
REMARK  222  A    between atoms: _545  and  _548
REMARK  223  A    between atoms: _548  and  _549
REMARK  224  A    between atoms: _552  and  _554
REMARK  225  A    between atoms: _554  and  _555
REMARK  226  A    between atoms: _554  and  _557
REMARK  227  A    between atoms: _557  and  _558
REMARK  228  A    between atoms: _558  and  _559
REMARK  229  A    between atoms: _561  and  _563
REMARK  230  A    between atoms: _563  and  _564
REMARK  231  A    between atoms: _563  and  _566
REMARK  232  A    between atoms: _566  and  _567
REMARK  233  A    between atoms: _572  and  _574
REMARK  234  A    between atoms: _574  and  _575
REMARK  235  A    between atoms: _574  and  _577
REMARK  236  A    between atoms: _577  and  _578
REMARK  237  A    between atoms: _583  and  _585
REMARK  238  A    between atoms: _585  and  _586
REMARK  239  A    between atoms: _588  and  _590
REMARK  240  A    between atoms: _590  and  _591
REMARK  241  A    between atoms: _590  and  _593
REMARK  242  A    between atoms: _591  and  _592
REMARK  243  A    between atoms: _591  and  _597
REMARK  244  A    between atoms: _592  and  MG_734
REMARK  245  A    between atoms: _593  and  _594
REMARK  246  A    between atoms: _597  and  _599
REMARK  247  A    between atoms: _599  and  _600
REMARK  248  A    between atoms: _599  and  _602
REMARK  249  A    between atoms: _602  and  _603
REMARK  250  A    between atoms: _608  and  _609
REMARK  251  A    between atoms: _611  and  _613
REMARK  252  A    between atoms: _613  and  _614
REMARK  253  A    between atoms: _616  and  _618
REMARK  254  A    between atoms: _618  and  _619
REMARK  255  A    between atoms: _622  and  _624
REMARK  256  A    between atoms: _624  and  _625
REMARK  257  A    between atoms: _624  and  _627
REMARK  258  A    between atoms: _627  and  _628
REMARK  259  A    between atoms: _631  and  _633
REMARK  260  A    between atoms: _633  and  _634
REMARK  261  A    between atoms: _633  and  _636
REMARK  262  A    between atoms: _636  and  _637
REMARK  263  A    between atoms: _637  and  _638
REMARK  264  A    between atoms: _638  and  _639
REMARK  265  A    between atoms: _648  and  _650
REMARK  266  A    between atoms: _650  and  _651
REMARK  267  A    between atoms: _650  and  _653
REMARK  268  A    between atoms: _653  and  _654
REMARK  269  A    between atoms: _664  and  _666
REMARK  270  A    between atoms: _666  and  _667
REMARK  271  A    between atoms: _666  and  _669
REMARK  272  A    between atoms: _669  and  _670
REMARK  273  A    between atoms: _676  and  _678
REMARK  274  A    between atoms: _678  and  _679
REMARK  275  A    between atoms: _681  and  _683
REMARK  276  A    between atoms: _683  and  _684
REMARK  277  A    between atoms: _683  and  _686
REMARK  278  A    between atoms: _686  and  _687
REMARK  279  A    between atoms: _690  and  _692
REMARK  280  A    between atoms: _692  and  _693
REMARK  281  A    between atoms: _692  and  _695
REMARK  282  A    between atoms: _698  and  _700
REMARK  283  A    between atoms: _700  and  _701
REMARK  284  A    between atoms: _700  and  _703
REMARK  285  A    between atoms: _703  and  _704
REMARK  286  A    between atoms: _710  and  _712
REMARK  287  A    between atoms: _712  and  _713
REMARK  288  A    between atoms: _712  and  _715
REMARK  289  A    between atoms: _715  and  _716
REMARK  290  A    between atoms: _719  and  _721
REMARK  291  A    between atoms: _721  and  _722
REMARK  292  A    between atoms: _721  and  _724
REMARK  293  A    between atoms: _728  and  _729
REMARK                            x       y       z     vdW  Elec       q    Type
REMARK                         _______ _______ _______ _____ _____    ______ ____
ROOT
ATOM      1  CA  TYR A   2      61.963  63.325 149.986  0.00  0.00    +0.153 C 
ENDROOT
BRANCH   1   4
ATOM      2  C   ARG A   1      64.309  64.087 150.109  0.00  0.00    +0.238 C 
ATOM      3  O   ARG A   1      64.356  63.900 151.325  0.00  0.00    -0.274 OA
ATOM      4  N   TYR A   2      63.220  63.849 149.383  0.00  0.00    -0.297 N 
ATOM      5  H   TYR A   2      63.247  64.035 148.360  0.00  0.00    +0.150 HD
BRANCH   2   6
ATOM      6  CA  ARG A   1      65.527  64.613 149.350  0.00  0.00    +0.145 C 
BRANCH   6   7
ATOM      7  N   ARG A   1      65.230  65.869 148.669  0.00  0.00    -0.238 NA
ATOM      8  H   ARG A   1      65.525  66.766 149.106  0.00  0.00    +0.142 HD
ENDBRANCH   6   7
BRANCH   6   9
ATOM      9  CB  ARG A   1      66.708  64.788 150.307  0.00  0.00    +0.030 C 
BRANCH   9  10
ATOM     10  CG  ARG A   1      67.357  63.483 150.738  0.00  0.00    +0.045 C 
BRANCH  10  11
ATOM     11  CD  ARG A   1      68.175  62.875 149.610  0.00  0.00    +0.174 C 
BRANCH  11  12
ATOM     12  NE  ARG A   1      69.492  63.494 149.493  0.00  0.00    -0.265 N 
ATOM     13  HE  ARG A   1      69.708  64.299 150.115  0.00  0.00    +0.259 HD
ATOM     14  CZ  ARG A   1      70.432  63.095 148.643  0.00  0.00    +0.342 C 
ATOM     15  NH2 ARG A   1      71.602  63.718 148.605  0.00  0.00    -0.292 N 
ATOM     16 HH21 ARG A   1      71.785  64.520 149.241  0.00  0.00    +0.255 HD
ATOM     17 HH22 ARG A   1      72.337  63.404 147.939  0.00  0.00    +0.255 HD
ATOM     18  NH1 ARG A   1      70.203  62.074 147.829  0.00  0.00    -0.292 N 
ATOM     19 HH11 ARG A   1      69.286  61.584 147.855  0.00  0.00    +0.255 HD
ATOM     20 HH12 ARG A   1      70.940  61.763 147.164  0.00  0.00    +0.255 HD
ENDBRANCH  11  12
ENDBRANCH  10  11
ENDBRANCH   9  10
ENDBRANCH   6   9
ENDBRANCH   2   6
ENDBRANCH   1   4
BRANCH   1  21
ATOM     21  C   TYR A   2      62.264  61.989 150.698  0.00  0.00    +0.241 C 
ATOM     22  N   HIS A   3      61.340  61.495 151.538  0.00  0.00    -0.297 N 
ATOM     23  H   HIS A   3      60.461  62.019 151.721  0.00  0.00    +0.150 HD
ATOM     24  O   TYR A   2      63.356  61.395 150.458  0.00  0.00    -0.273 OA
BRANCH  22  25
ATOM     25  CA  HIS A   3      61.587  60.204 152.196  0.00  0.00    +0.155 C 
BRANCH  25  26
ATOM     26  C   HIS A   3      60.343  59.387 152.156  0.00  0.00    +0.241 C 
ATOM     27  N   GLN A   4      59.351  59.850 152.919  0.00  0.00    -0.298 N 
ATOM     28  H   GLN A   4      59.487  60.723 153.468  0.00  0.00    +0.150 HD
ATOM     29  O   HIS A   3      60.255  58.385 151.425  0.00  0.00    -0.273 OA
BRANCH  27  30
ATOM     30  CA  GLN A   4      58.089  59.148 152.988  0.00  0.00    +0.137 C 
BRANCH  30  31
ATOM     31  C   GLN A   4      57.369  59.249 151.658  0.00  0.00    +0.227 C 
ATOM     32  O   GLN A   4      57.575  60.189 150.871  0.00  0.00    -0.286 OA
ENDBRANCH  30  31
BRANCH  30  33
ATOM     33  CB  GLN A   4      57.211  59.711 154.115  0.00  0.00    +0.037 C 
BRANCH  33  34
ATOM     34  CG  GLN A   4      56.887  61.190 153.987  0.00  0.00    +0.087 C 
BRANCH  34  35
ATOM     35  CD  GLN A   4      57.816  62.071 154.795  0.00  0.00    +0.219 C 
ATOM     36  NE2 GLN A   4      57.309  63.289 155.187  0.00  0.00    -0.329 N 
ATOM     37 HE21 GLN A   4      57.882  63.925 155.778  0.00  0.00    +0.145 HD
ATOM     38 HE22 GLN A   4      56.353  63.574 154.892  0.00  0.00    +0.145 HD
ATOM     39  OE1 GLN A   4      58.951  61.671 155.113  0.00  0.00    -0.275 OA
ENDBRANCH  34  35
ENDBRANCH  33  34
ENDBRANCH  30  33
ENDBRANCH  27  30
ENDBRANCH  25  26
BRANCH  25  40
ATOM     40  CB  HIS A   3      62.129  60.292 153.626  0.00  0.00    +0.076 C 
BRANCH  40  41
ATOM     41  CG  HIS A   3      62.112  58.928 154.279  0.00  0.00    +0.082 A 
ATOM     42  CD2 HIS A   3      61.560  58.509 155.431  0.00  0.00    +0.115 A 
ATOM     43  NE2 HIS A   3      61.762  57.154 155.518  0.00  0.00    -0.221 NA
ATOM     44  CE1 HIS A   3      62.311  56.733 154.396  0.00  0.00    +0.199 A 
ATOM     45  ND1 HIS A   3      62.550  57.786 153.635  0.00  0.00    -0.227 NA
ENDBRANCH  40  41
ENDBRANCH  25  40
ENDBRANCH  22  25
ENDBRANCH   1  21
BRANCH   1  46
ATOM     46  CB  TYR A   2      61.038  63.065 148.851  0.00  0.00    +0.055 C 
BRANCH  46  47
ATOM     47  CG  TYR A   2      60.579  64.251 148.016  0.00  0.00    -0.020 A 
ATOM     48  CD2 TYR A   2      59.899  65.317 148.602  0.00  0.00    -0.001 A 
ATOM     49  CE2 TYR A   2      59.447  66.368 147.799  0.00  0.00    +0.036 A 
ATOM     50  CZ  TYR A   2      59.764  66.396 146.404  0.00  0.00    +0.134 A 
ATOM     51  CE1 TYR A   2      60.526  65.332 145.833  0.00  0.00    +0.036 A 
ATOM     52  CD1 TYR A   2      60.919  64.316 146.662  0.00  0.00    -0.001 A 
BRANCH  50  53
ATOM     53  OH  TYR A   2      59.362  67.420 145.566  0.00  0.00    -0.506 OA
ATOM     54  HH  TYR A   2      58.846  68.087 146.085  0.00  0.00    +0.292 HD
ENDBRANCH  50  53
ENDBRANCH  46  47
ENDBRANCH   1  46
TORSDOF 20
REMARK  Name = ../refined-set-2016/3f6e/3f6e_pocket.pdb
REMARK  293 active torsions:
REMARK  status: ('A' for Active; 'I' for Inactive)
REMARK    1  A    between atoms: _1  and  _3
REMARK    2  A    between atoms: _3  and  _4
REMARK    3  A    between atoms: _3  and  _6
REMARK    4  A    between atoms: _6  and  _7
REMARK    5  A    between atoms: _13  and  _14
REMARK    6  A    between atoms: _19  and  _21
REMARK    7  A    between atoms: _21  and  _22
REMARK    8  A    between atoms: _24  and  _26
REMARK    9  A    between atoms: _26  and  _27
REMARK   10  A    between atoms: _26  and  _29
REMARK   11  A    between atoms: _29  and  _30
REMARK   12  A    between atoms: _32  and  _34
REMARK   13  A    between atoms: _34  and  _35
REMARK   14  A    between atoms: _34  and  _37
REMARK   15  A    between atoms: _37  and  _38
REMARK   16  A    between atoms: _43  and  _45
REMARK   17  A    between atoms: _45  and  _46
REMARK   18  A    between atoms: _45  and  _48
REMARK   19  A    between atoms: _48  and  _49
REMARK   20  A    between atoms: _49  and  _50
REMARK   21  A    between atoms: _53  and  _55
REMARK   22  A    between atoms: _55  and  _56
REMARK   23  A    between atoms: _55  and  _58
REMARK   24  A    between atoms: _58  and  _59
REMARK   25  A    between atoms: _62  and  _64
REMARK   26  A    between atoms: _64  and  _65
REMARK   27  A    between atoms: _64  and  _67
REMARK   28  A    between atoms: _67  and  _68
REMARK   29  A    between atoms: _71  and  _73
REMARK   30  A    between atoms: _73  and  _74
REMARK   31  A    between atoms: _77  and  _79
REMARK   32  A    between atoms: _79  and  _80
REMARK   33  A    between atoms: _79  and  _82
REMARK   34  A    between atoms: _82  and  _83
REMARK   35  A    between atoms: _86  and  _88
REMARK   36  A    between atoms: _88  and  _89
REMARK   37  A    between atoms: _88  and  _91
REMARK   38  A    between atoms: _91  and  _92
REMARK   39  A    between atoms: _92  and  _93
REMARK   40  A    between atoms: _98  and  _100
REMARK   41  A    between atoms: _100  and  _101
REMARK   42  A    between atoms: _100  and  _103
REMARK   43  A    between atoms: _103  and  _104
REMARK   44  A    between atoms: _104  and  _105
REMARK   45  A    between atoms: _108  and  _110
REMARK   46  A    between atoms: _110  and  _111
REMARK   47  A    between atoms: _114  and  _116
REMARK   48  A    between atoms: _116  and  _117
REMARK   49  A    between atoms: _116  and  _119
REMARK   50  A    between atoms: _119  and  _120
REMARK   51  A    between atoms: _123  and  _125
REMARK   52  A    between atoms: _125  and  _126
REMARK   53  A    between atoms: _125  and  _128
REMARK   54  A    between atoms: _128  and  _129
REMARK   55  A    between atoms: _134  and  _136
REMARK   56  A    between atoms: _136  and  _137
REMARK   57  A    between atoms: _136  and  _139
REMARK   58  A    between atoms: _139  and  _140
REMARK   59  A    between atoms: _142  and  _144
REMARK   60  A    between atoms: _144  and  _145
REMARK   61  A    between atoms: _148  and  _150
REMARK   62  A    between atoms: _150  and  _151
REMARK   63  A    between atoms: _154  and  _156
REMARK   64  A    between atoms: _156  and  _157
REMARK   65  A    between atoms: _159  and  _161
REMARK   66  A    between atoms: _161  and  _162
REMARK   67  A    between atoms: _161  and  _164
REMARK   68  A    between atoms: _164  and  _165
REMARK   69  A    between atoms: _168  and  _170
REMARK   70  A    between atoms: _170  and  _171
REMARK   71  A    between atoms: _173  and  _175
REMARK   72  A    between atoms: _175  and  _176
REMARK   73  A    between atoms: _175  and  _178
REMARK   74  A    between atoms: _178  and  _179
REMARK   75  A    between atoms: _184  and  _186
REMARK   76  A    between atoms: _186  and  _187
REMARK   77  A    between atoms: _190  and  _192
REMARK   78  A    between atoms: _192  and  _193
REMARK   79  A    between atoms: _192  and  _195
REMARK   80  A    between atoms: _195  and  _196
REMARK   81  A    between atoms: _196  and  _197
REMARK   82  A    between atoms: _202  and  _204
REMARK   83  A    between atoms: _204  and  _205
REMARK   84  A    between atoms: _204  and  _207
REMARK   85  A    between atoms: _207  and  _208
REMARK   86  A    between atoms: _211  and  _213
REMARK   87  A    between atoms: _213  and  _214
REMARK   88  A    between atoms: _213  and  _216
REMARK   89  A    between atoms: _216  and  _217
REMARK   90  A    between atoms: _220  and  _222
REMARK   91  A    between atoms: _222  and  _223
REMARK   92  A    between atoms: _225  and  _227
REMARK   93  A    between atoms: _227  and  _228
REMARK   94  A    between atoms: _231  and  _233
REMARK   95  A    between atoms: _233  and  _234
REMARK   96  A    between atoms: _233  and  _236
REMARK   97  A    between atoms: _236  and  _237
REMARK   98  A    between atoms: _239  and  _241
REMARK   99  A    between atoms: _241  and  _242
REMARK  100  A    between atoms: _241  and  _244
REMARK  101  A    between atoms: _244  and  _245
REMARK  102  A    between atoms: _250  and  _252
REMARK  103  A    between atoms: _252  and  _253
REMARK  104  A    between atoms: _252  and  _255
REMARK  105  A    between atoms: _255  and  _256
REMARK  106  A    between atoms: _258  and  _260
REMARK  107  A    between atoms: _260  and  _261
REMARK  108  A    between atoms: _264  and  _266
REMARK  109  A    between atoms: _266  and  _267
REMARK  110  A    between atoms: _270  and  _272
REMARK  111  A    between atoms: _272  and  _273
REMARK  112  A    between atoms: _272  and  _275
REMARK  113  A    between atoms: _275  and  _276
REMARK  114  A    between atoms: _276  and  _277
REMARK  115  A    between atoms: _277  and  _278
REMARK  116  A    between atoms: _287  and  _289
REMARK  117  A    between atoms: _289  and  _290
REMARK  118  A    between atoms: _289  and  _292
REMARK  119  A    between atoms: _292  and  _293
REMARK  120  A    between atoms: _298  and  _299
REMARK  121  A    between atoms: _301  and  _303
REMARK  122  A    between atoms: _303  and  _304
REMARK  123  A    between atoms: _303  and  _306
REMARK  124  A    between atoms: _306  and  _307
REMARK  125  A    between atoms: _312  and  _314
REMARK  126  A    between atoms: _314  and  _315
REMARK  127  A    between atoms: _314  and  _317
REMARK  128  A    between atoms: _317  and  _318
REMARK  129  A    between atoms: _318  and  _319
REMARK  130  A    between atoms: _325  and  _326
REMARK  131  A    between atoms: _331  and  _333
REMARK  132  A    between atoms: _333  and  _334
REMARK  133  A    between atoms: _333  and  _336
REMARK  134  A    between atoms: _336  and  _337
REMARK  135  A    between atoms: _342  and  _344
REMARK  136  A    between atoms: _344  and  _345
REMARK  137  A    between atoms: _344  and  _347
REMARK  138  A    between atoms: _347  and  _348
REMARK  139  A    between atoms: _348  and  _349
REMARK  140  A    between atoms: _352  and  _354
REMARK  141  A    between atoms: _354  and  _355
REMARK  142  A    between atoms: _354  and  _357
REMARK  143  A    between atoms: _357  and  _358
REMARK  144  A    between atoms: _360  and  _362
REMARK  145  A    between atoms: _362  and  _363
REMARK  146  A    between atoms: _362  and  _365
REMARK  147  A    between atoms: _365  and  _366
REMARK  148  A    between atoms: _369  and  _371
REMARK  149  A    between atoms: _371  and  _372
REMARK  150  A    between atoms: _371  and  _374
REMARK  151  A    between atoms: _374  and  _375
REMARK  152  A    between atoms: _377  and  _379
REMARK  153  A    between atoms: _379  and  _380
REMARK  154  A    between atoms: _379  and  _382
REMARK  155  A    between atoms: _382  and  _383
REMARK  156  A    between atoms: _386  and  _388
REMARK  157  A    between atoms: _388  and  _389
REMARK  158  A    between atoms: _388  and  _391
REMARK  159  A    between atoms: _391  and  _392
REMARK  160  A    between atoms: _395  and  _397
REMARK  161  A    between atoms: _397  and  _398
REMARK  162  A    between atoms: _397  and  _400
REMARK  163  A    between atoms: _400  and  _401
REMARK  164  A    between atoms: _401  and  _402
REMARK  165  A    between atoms: _407  and  _409
REMARK  166  A    between atoms: _409  and  _410
REMARK  167  A    between atoms: _409  and  _412
REMARK  168  A    between atoms: _412  and  _413
REMARK  169  A    between atoms: _419  and  _421
REMARK  170  A    between atoms: _421  and  _422
REMARK  171  A    between atoms: _421  and  _424
REMARK  172  A    between atoms: _426  and  _428
REMARK  173  A    between atoms: _428  and  _429
REMARK  174  A    between atoms: _432  and  _434
REMARK  175  A    between atoms: _434  and  _435
REMARK  176  A    between atoms: _437  and  _439
REMARK  177  A    between atoms: _439  and  _440
REMARK  178  A    between atoms: _442  and  _444
REMARK  179  A    between atoms: _444  and  _445
REMARK  180  A    between atoms: _444  and  _447
REMARK  181  A    between atoms: _447  and  _448
REMARK  182  A    between atoms: _451  and  _453
REMARK  183  A    between atoms: _453  and  _454
REMARK  184  A    between atoms: _456  and  _458
REMARK  185  A    between atoms: _458  and  _459
REMARK  186  A    between atoms: _458  and  _461
REMARK  187  A    between atoms: _461  and  _462
REMARK  188  A    between atoms: _468  and  _470
REMARK  189  A    between atoms: _470  and  _471
REMARK  190  A    between atoms: _470  and  _473
REMARK  191  A    between atoms: _476  and  _478
REMARK  192  A    between atoms: _478  and  _479
REMARK  193  A    between atoms: _478  and  _481
REMARK  194  A    between atoms: _481  and  _482
REMARK  195  A    between atoms: _485  and  _487
REMARK  196  A    between atoms: _487  and  _488
REMARK  197  A    between atoms: _490  and  _492
REMARK  198  A    between atoms: _492  and  _493
REMARK  199  A    between atoms: _492  and  _495
REMARK  200  A    between atoms: _495  and  _496
REMARK  201  A    between atoms: _496  and  _497
REMARK  202  A    between atoms: _497  and  MG_734
REMARK  203  A    between atoms: _499  and  _501
REMARK  204  A    between atoms: _501  and  _502
REMARK  205  A    between atoms: _504  and  _506
REMARK  206  A    between atoms: _506  and  _507
REMARK  207  A    between atoms: _506  and  _509
REMARK  208  A    between atoms: _509  and  _510
REMARK  209  A    between atoms: _512  and  _514
REMARK  210  A    between atoms: _514  and  _515
REMARK  211  A    between atoms: _518  and  _520
REMARK  212  A    between atoms: _520  and  _521
REMARK  213  A    between atoms: _520  and  _523
REMARK  214  A    between atoms: _523  and  _524
REMARK  215  A    between atoms: _529  and  _531
REMARK  216  A    between atoms: _531  and  _532
REMARK  217  A    between atoms: _531  and  _534
REMARK  218  A    between atoms: _534  and  _535
REMARK  219  A    between atoms: _540  and  _541
REMARK  220  A    between atoms: _543  and  _545
REMARK  221  A    between atoms: _545  and  _546
REMARK  222  A    between atoms: _545  and  _548
REMARK  223  A    between atoms: _548  and  _549
REMARK  224  A    between atoms: _552  and  _554
REMARK  225  A    between atoms: _554  and  _555
REMARK  226  A    between atoms: _554  and  _557
REMARK  227  A    between atoms: _557  and  _558
REMARK  228  A    between atoms: _558  and  _559
REMARK  229  A    between atoms: _561  and  _563
REMARK  230  A    between atoms: _563  and  _564
REMARK  231  A    between atoms: _563  and  _566
REMARK  232  A    between atoms: _566  and  _567
REMARK  233  A    between atoms: _572  and  _574
REMARK  234  A    between atoms: _574  and  _575
REMARK  235  A    between atoms: _574  and  _577
REMARK  236  A    between atoms: _577  and  _578
REMARK  237  A    between atoms: _583  and  _585
REMARK  238  A    between atoms: _585  and  _586
REMARK  239  A    between atoms: _588  and  _590
REMARK  240  A    between atoms: _590  and  _591
REMARK  241  A    between atoms: _590  and  _593
REMARK  242  A    between atoms: _591  and  _592
REMARK  243  A    between atoms: _591  and  _597
REMARK  244  A    between atoms: _592  and  MG_734
REMARK  245  A    between atoms: _593  and  _594
REMARK  246  A    between atoms: _597  and  _599
REMARK  247  A    between atoms: _599  and  _600
REMARK  248  A    between atoms: _599  and  _602
REMARK  249  A    between atoms: _602  and  _603
REMARK  250  A    between atoms: _608  and  _609
REMARK  251  A    between atoms: _611  and  _613
REMARK  252  A    between atoms: _613  and  _614
REMARK  253  A    between atoms: _616  and  _618
REMARK  254  A    between atoms: _618  and  _619
REMARK  255  A    between atoms: _622  and  _624
REMARK  256  A    between atoms: _624  and  _625
REMARK  257  A    between atoms: _624  and  _627
REMARK  258  A    between atoms: _627  and  _628
REMARK  259  A    between atoms: _631  and  _633
REMARK  260  A    between atoms: _633  and  _634
REMARK  261  A    between atoms: _633  and  _636
REMARK  262  A    between atoms: _636  and  _637
REMARK  263  A    between atoms: _637  and  _638
REMARK  264  A    between atoms: _638  and  _639
REMARK  265  A    between atoms: _648  and  _650
REMARK  266  A    between atoms: _650  and  _651
REMARK  267  A    between atoms: _650  and  _653
REMARK  268  A    between atoms: _653  and  _654
REMARK  269  A    between atoms: _664  and  _666
REMARK  270  A    between atoms: _666  and  _667
REMARK  271  A    between atoms: _666  and  _669
REMARK  272  A    between atoms: _669  and  _670
REMARK  273  A    between atoms: _676  and  _678
REMARK  274  A    between atoms: _678  and  _679
REMARK  275  A    between atoms: _681  and  _683
REMARK  276  A    between atoms: _683  and  _684
REMARK  277  A    between atoms: _683  and  _686
REMARK  278  A    between atoms: _686  and  _687
REMARK  279  A    between atoms: _690  and  _692
REMARK  280  A    between atoms: _692  and  _693
REMARK  281  A    between atoms: _692  and  _695
REMARK  282  A    between atoms: _698  and  _700
REMARK  283  A    between atoms: _700  and  _701
REMARK  284  A    between atoms: _700  and  _703
REMARK  285  A    between atoms: _703  and  _704
REMARK  286  A    between atoms: _710  and  _712
REMARK  287  A    between atoms: _712  and  _713
REMARK  288  A    between atoms: _712  and  _715
REMARK  289  A    between atoms: _715  and  _716
REMARK  290  A    between atoms: _719  and  _721
REMARK  291  A    between atoms: _721  and  _722
REMARK  292  A    between atoms: _721  and  _724
REMARK  293  A    between atoms: _728  and  _729
REMARK                            x       y       z     vdW  Elec       q    Type
REMARK                         _______ _______ _______ _____ _____    ______ ____
ROOT
ATOM      1  N   PRO A   1      61.693  63.273 175.118  0.00  0.00    -0.212 NA
ATOM      2  CD  PRO A   1      60.979  62.215 174.384  0.00  0.00    +0.089 C 
ATOM      3  CG  PRO A   1      61.774  62.077 173.098  0.00  0.00    +0.021 C 
ATOM      4  CB  PRO A   1      62.491  63.400 172.899  0.00  0.00    +0.027 C 
ATOM      5  CA  PRO A   1      62.769  63.924 174.295  0.00  0.00    +0.137 C 
ENDROOT
BRANCH   5   6
ATOM      6  C   PRO A   1      62.707  65.450 174.286  0.00  0.00    +0.224 C 
ATOM      7  O   PRO A   1      63.734  66.113 174.286  0.00  0.00    -0.287 OA
ENDBRANCH   5   6
TORSDOF 1
REMARK  Name = ../refined-set-2016/3f6e/3f6e_pocket.pdb
REMARK  293 active torsions:
REMARK  status: ('A' for Active; 'I' for Inactive)
REMARK    1  A    between atoms: _1  and  _3
REMARK    2  A    between atoms: _3  and  _4
REMARK    3  A    between atoms: _3  and  _6
REMARK    4  A    between atoms: _6  and  _7
REMARK    5  A    between atoms: _13  and  _14
REMARK    6  A    between atoms: _19  and  _21
REMARK    7  A    between atoms: _21  and  _22
REMARK    8  A    between atoms: _24  and  _26
REMARK    9  A    between atoms: _26  and  _27
REMARK   10  A    between atoms: _26  and  _29
REMARK   11  A    between atoms: _29  and  _30
REMARK   12  A    between atoms: _32  and  _34
REMARK   13  A    between atoms: _34  and  _35
REMARK   14  A    between atoms: _34  and  _37
REMARK   15  A    between atoms: _37  and  _38
REMARK   16  A    between atoms: _43  and  _45
REMARK   17  A    between atoms: _45  and  _46
REMARK   18  A    between atoms: _45  and  _48
REMARK   19  A    between atoms: _48  and  _49
REMARK   20  A    between atoms: _49  and  _50
REMARK   21  A    between atoms: _53  and  _55
REMARK   22  A    between atoms: _55  and  _56
REMARK   23  A    between atoms: _55  and  _58
REMARK   24  A    between atoms: _58  and  _59
REMARK   25  A    between atoms: _62  and  _64
REMARK   26  A    between atoms: _64  and  _65
REMARK   27  A    between atoms: _64  and  _67
REMARK   28  A    between atoms: _67  and  _68
REMARK   29  A    between atoms: _71  and  _73
REMARK   30  A    between atoms: _73  and  _74
REMARK   31  A    between atoms: _77  and  _79
REMARK   32  A    between atoms: _79  and  _80
REMARK   33  A    between atoms: _79  and  _82
REMARK   34  A    between atoms: _82  and  _83
REMARK   35  A    between atoms: _86  and  _88
REMARK   36  A    between atoms: _88  and  _89
REMARK   37  A    between atoms: _88  and  _91
REMARK   38  A    between atoms: _91  and  _92
REMARK   39  A    between atoms: _92  and  _93
REMARK   40  A    between atoms: _98  and  _100
REMARK   41  A    between atoms: _100  and  _101
REMARK   42  A    between atoms: _100  and  _103
REMARK   43  A    between atoms: _103  and  _104
REMARK   44  A    between atoms: _104  and  _105
REMARK   45  A    between atoms: _108  and  _110
REMARK   46  A    between atoms: _110  and  _111
REMARK   47  A    between atoms: _114  and  _116
REMARK   48  A    between atoms: _116  and  _117
REMARK   49  A    between atoms: _116  and  _119
REMARK   50  A    between atoms: _119  and  _120
REMARK   51  A    between atoms: _123  and  _125
REMARK   52  A    between atoms: _125  and  _126
REMARK   53  A    between atoms: _125  and  _128
REMARK   54  A    between atoms: _128  and  _129
REMARK   55  A    between atoms: _134  and  _136
REMARK   56  A    between atoms: _136  and  _137
REMARK   57  A    between atoms: _136  and  _139
REMARK   58  A    between atoms: _139  and  _140
REMARK   59  A    between atoms: _142  and  _144
REMARK   60  A    between atoms: _144  and  _145
REMARK   61  A    between atoms: _148  and  _150
REMARK   62  A    between atoms: _150  and  _151
REMARK   63  A    between atoms: _154  and  _156
REMARK   64  A    between atoms: _156  and  _157
REMARK   65  A    between atoms: _159  and  _161
REMARK   66  A    between atoms: _161  and  _162
REMARK   67  A    between atoms: _161  and  _164
REMARK   68  A    between atoms: _164  and  _165
REMARK   69  A    between atoms: _168  and  _170
REMARK   70  A    between atoms: _170  and  _171
REMARK   71  A    between atoms: _173  and  _175
REMARK   72  A    between atoms: _175  and  _176
REMARK   73  A    between atoms: _175  and  _178
REMARK   74  A    between atoms: _178  and  _179
REMARK   75  A    between atoms: _184  and  _186
REMARK   76  A    between atoms: _186  and  _187
REMARK   77  A    between atoms: _190  and  _192
REMARK   78  A    between atoms: _192  and  _193
REMARK   79  A    between atoms: _192  and  _195
REMARK   80  A    between atoms: _195  and  _196
REMARK   81  A    between atoms: _196  and  _197
REMARK   82  A    between atoms: _202  and  _204
REMARK   83  A    between atoms: _204  and  _205
REMARK   84  A    between atoms: _204  and  _207
REMARK   85  A    between atoms: _207  and  _208
REMARK   86  A    between atoms: _211  and  _213
REMARK   87  A    between atoms: _213  and  _214
REMARK   88  A    between atoms: _213  and  _216
REMARK   89  A    between atoms: _216  and  _217
REMARK   90  A    between atoms: _220  and  _222
REMARK   91  A    between atoms: _222  and  _223
REMARK   92  A    between atoms: _225  and  _227
REMARK   93  A    between atoms: _227  and  _228
REMARK   94  A    between atoms: _231  and  _233
REMARK   95  A    between atoms: _233  and  _234
REMARK   96  A    between atoms: _233  and  _236
REMARK   97  A    between atoms: _236  and  _237
REMARK   98  A    between atoms: _239  and  _241
REMARK   99  A    between atoms: _241  and  _242
REMARK  100  A    between atoms: _241  and  _244
REMARK  101  A    between atoms: _244  and  _245
REMARK  102  A    between atoms: _250  and  _252
REMARK  103  A    between atoms: _252  and  _253
REMARK  104  A    between atoms: _252  and  _255
REMARK  105  A    between atoms: _255  and  _256
REMARK  106  A    between atoms: _258  and  _260
REMARK  107  A    between atoms: _260  and  _261
REMARK  108  A    between atoms: _264  and  _266
REMARK  109  A    between atoms: _266  and  _267
REMARK  110  A    between atoms: _270  and  _272
REMARK  111  A    between atoms: _272  and  _273
REMARK  112  A    between atoms: _272  and  _275
REMARK  113  A    between atoms: _275  and  _276
REMARK  114  A    between atoms: _276  and  _277
REMARK  115  A    between atoms: _277  and  _278
REMARK  116  A    between atoms: _287  and  _289
REMARK  117  A    between atoms: _289  and  _290
REMARK  118  A    between atoms: _289  and  _292
REMARK  119  A    between atoms: _292  and  _293
REMARK  120  A    between atoms: _298  and  _299
REMARK  121  A    between atoms: _301  and  _303
REMARK  122  A    between atoms: _303  and  _304
REMARK  123  A    between atoms: _303  and  _306
REMARK  124  A    between atoms: _306  and  _307
REMARK  125  A    between atoms: _312  and  _314
REMARK  126  A    between atoms: _314  and  _315
REMARK  127  A    between atoms: _314  and  _317
REMARK  128  A    between atoms: _317  and  _318
REMARK  129  A    between atoms: _318  and  _319
REMARK  130  A    between atoms: _325  and  _326
REMARK  131  A    between atoms: _331  and  _333
REMARK  132  A    between atoms: _333  and  _334
REMARK  133  A    between atoms: _333  and  _336
REMARK  134  A    between atoms: _336  and  _337
REMARK  135  A    between atoms: _342  and  _344
REMARK  136  A    between atoms: _344  and  _345
REMARK  137  A    between atoms: _344  and  _347
REMARK  138  A    between atoms: _347  and  _348
REMARK  139  A    between atoms: _348  and  _349
REMARK  140  A    between atoms: _352  and  _354
REMARK  141  A    between atoms: _354  and  _355
REMARK  142  A    between atoms: _354  and  _357
REMARK  143  A    between atoms: _357  and  _358
REMARK  144  A    between atoms: _360  and  _362
REMARK  145  A    between atoms: _362  and  _363
REMARK  146  A    between atoms: _362  and  _365
REMARK  147  A    between atoms: _365  and  _366
REMARK  148  A    between atoms: _369  and  _371
REMARK  149  A    between atoms: _371  and  _372
REMARK  150  A    between atoms: _371  and  _374
REMARK  151  A    between atoms: _374  and  _375
REMARK  152  A    between atoms: _377  and  _379
REMARK  153  A    between atoms: _379  and  _380
REMARK  154  A    between atoms: _379  and  _382
REMARK  155  A    between atoms: _382  and  _383
REMARK  156  A    between atoms: _386  and  _388
REMARK  157  A    between atoms: _388  and  _389
REMARK  158  A    between atoms: _388  and  _391
REMARK  159  A    between atoms: _391  and  _392
REMARK  160  A    between atoms: _395  and  _397
REMARK  161  A    between atoms: _397  and  _398
REMARK  162  A    between atoms: _397  and  _400
REMARK  163  A    between atoms: _400  and  _401
REMARK  164  A    between atoms: _401  and  _402
REMARK  165  A    between atoms: _407  and  _409
REMARK  166  A    between atoms: _409  and  _410
REMARK  167  A    between atoms: _409  and  _412
REMARK  168  A    between atoms: _412  and  _413
REMARK  169  A    between atoms: _419  and  _421
REMARK  170  A    between atoms: _421  and  _422
REMARK  171  A    between atoms: _421  and  _424
REMARK  172  A    between atoms: _426  and  _428
REMARK  173  A    between atoms: _428  and  _429
REMARK  174  A    between atoms: _432  and  _434
REMARK  175  A    between atoms: _434  and  _435
REMARK  176  A    between atoms: _437  and  _439
REMARK  177  A    between atoms: _439  and  _440
REMARK  178  A    between atoms: _442  and  _444
REMARK  179  A    between atoms: _444  and  _445
REMARK  180  A    between atoms: _444  and  _447
REMARK  181  A    between atoms: _447  and  _448
REMARK  182  A    between atoms: _451  and  _453
REMARK  183  A    between atoms: _453  and  _454
REMARK  184  A    between atoms: _456  and  _458
REMARK  185  A    between atoms: _458  and  _459
REMARK  186  A    between atoms: _458  and  _461
REMARK  187  A    between atoms: _461  and  _462
REMARK  188  A    between atoms: _468  and  _470
REMARK  189  A    between atoms: _470  and  _471
REMARK  190  A    between atoms: _470  and  _473
REMARK  191  A    between atoms: _476  and  _478
REMARK  192  A    between atoms: _478  and  _479
REMARK  193  A    between atoms: _478  and  _481
REMARK  194  A    between atoms: _481  and  _482
REMARK  195  A    between atoms: _485  and  _487
REMARK  196  A    between atoms: _487  and  _488
REMARK  197  A    between atoms: _490  and  _492
REMARK  198  A    between atoms: _492  and  _493
REMARK  199  A    between atoms: _492  and  _495
REMARK  200  A    between atoms: _495  and  _496
REMARK  201  A    between atoms: _496  and  _497
REMARK  202  A    between atoms: _497  and  MG_734
REMARK  203  A    between atoms: _499  and  _501
REMARK  204  A    between atoms: _501  and  _502
REMARK  205  A    between atoms: _504  and  _506
REMARK  206  A    between atoms: _506  and  _507
REMARK  207  A    between atoms: _506  and  _509
REMARK  208  A    between atoms: _509  and  _510
REMARK  209  A    between atoms: _512  and  _514
REMARK  210  A    between atoms: _514  and  _515
REMARK  211  A    between atoms: _518  and  _520
REMARK  212  A    between atoms: _520  and  _521
REMARK  213  A    between atoms: _520  and  _523
REMARK  214  A    between atoms: _523  and  _524
REMARK  215  A    between atoms: _529  and  _531
REMARK  216  A    between atoms: _531  and  _532
REMARK  217  A    between atoms: _531  and  _534
REMARK  218  A    between atoms: _534  and  _535
REMARK  219  A    between atoms: _540  and  _541
REMARK  220  A    between atoms: _543  and  _545
REMARK  221  A    between atoms: _545  and  _546
REMARK  222  A    between atoms: _545  and  _548
REMARK  223  A    between atoms: _548  and  _549
REMARK  224  A    between atoms: _552  and  _554
REMARK  225  A    between atoms: _554  and  _555
REMARK  226  A    between atoms: _554  and  _557
REMARK  227  A    between atoms: _557  and  _558
REMARK  228  A    between atoms: _558  and  _559
REMARK  229  A    between atoms: _561  and  _563
REMARK  230  A    between atoms: _563  and  _564
REMARK  231  A    between atoms: _563  and  _566
REMARK  232  A    between atoms: _566  and  _567
REMARK  233  A    between atoms: _572  and  _574
REMARK  234  A    between atoms: _574  and  _575
REMARK  235  A    between atoms: _574  and  _577
REMARK  236  A    between atoms: _577  and  _578
REMARK  237  A    between atoms: _583  and  _585
REMARK  238  A    between atoms: _585  and  _586
REMARK  239  A    between atoms: _588  and  _590
REMARK  240  A    between atoms: _590  and  _591
REMARK  241  A    between atoms: _590  and  _593
REMARK  242  A    between atoms: _591  and  _592
REMARK  243  A    between atoms: _591  and  _597
REMARK  244  A    between atoms: _592  and  MG_734
REMARK  245  A    between atoms: _593  and  _594
REMARK  246  A    between atoms: _597  and  _599
REMARK  247  A    between atoms: _599  and  _600
REMARK  248  A    between atoms: _599  and  _602
REMARK  249  A    between atoms: _602  and  _603
REMARK  250  A    between atoms: _608  and  _609
REMARK  251  A    between atoms: _611  and  _613
REMARK  252  A    between atoms: _613  and  _614
REMARK  253  A    between atoms: _616  and  _618
REMARK  254  A    between atoms: _618  and  _619
REMARK  255  A    between atoms: _622  and  _624
REMARK  256  A    between atoms: _624  and  _625
REMARK  257  A    between atoms: _624  and  _627
REMARK  258  A    between atoms: _627  and  _628
REMARK  259  A    between atoms: _631  and  _633
REMARK  260  A    between atoms: _633  and  _634
REMARK  261  A    between atoms: _633  and  _636
REMARK  262  A    between atoms: _636  and  _637
REMARK  263  A    between atoms: _637  and  _638
REMARK  264  A    between atoms: _638  and  _639
REMARK  265  A    between atoms: _648  and  _650
REMARK  266  A    between atoms: _650  and  _651
REMARK  267  A    between atoms: _650  and  _653
REMARK  268  A    between atoms: _653  and  _654
REMARK  269  A    between atoms: _664  and  _666
REMARK  270  A    between atoms: _666  and  _667
REMARK  271  A    between atoms: _666  and  _669
REMARK  272  A    between atoms: _669  and  _670
REMARK  273  A    between atoms: _676  and  _678
REMARK  274  A    between atoms: _678  and  _679
REMARK  275  A    between atoms: _681  and  _683
REMARK  276  A    between atoms: _683  and  _684
REMARK  277  A    between atoms: _683  and  _686
REMARK  278  A    between atoms: _686  and  _687
REMARK  279  A    between atoms: _690  and  _692
REMARK  280  A    between atoms: _692  and  _693
REMARK  281  A    between atoms: _692  and  _695
REMARK  282  A    between atoms: _698  and  _700
REMARK  283  A    between atoms: _700  and  _701
REMARK  284  A    between atoms: _700  and  _703
REMARK  285  A    between atoms: _703  and  _704
REMARK  286  A    between atoms: _710  and  _712
REMARK  287  A    between atoms: _712  and  _713
REMARK  288  A    between atoms: _712  and  _715
REMARK  289  A    between atoms: _715  and  _716
REMARK  290  A    between atoms: _719  and  _721
REMARK  291  A    between atoms: _721  and  _722
REMARK  292  A    between atoms: _721  and  _724
REMARK  293  A    between atoms: _728  and  _729
REMARK                            x       y       z     vdW  Elec       q    Type
REMARK                         _______ _______ _______ _____ _____    ______ ____
ROOT
ATOM      1  CA  THR A   4      65.860  59.062 164.595  0.00  0.00    +0.176 C 
ENDROOT
BRANCH   1   4
ATOM      2  C   SER A   3      66.924  60.062 166.547  0.00  0.00    +0.243 C 
ATOM      3  O   SER A   3      66.283  61.125 166.462  0.00  0.00    -0.273 OA
ATOM      4  N   THR A   4      66.703  58.991 165.770  0.00  0.00    -0.295 N 
ATOM      5  H   THR A   4      67.149  58.085 166.018  0.00  0.00    +0.150 HD
BRANCH   2   6
ATOM      6  CA  SER A   3      68.073  59.936 167.520  0.00  0.00    +0.178 C 
BRANCH   6   9
ATOM      7  C   GLU A   2      70.213  59.498 166.378  0.00  0.00    +0.241 C 
ATOM      8  O   GLU A   2      70.341  58.371 166.821  0.00  0.00    -0.273 OA
ATOM      9  N   SER A   3      69.217  60.331 166.694  0.00  0.00    -0.295 N 
ATOM     10  H   SER A   3      69.256  61.307 166.336  0.00  0.00    +0.150 HD
BRANCH   7  11
ATOM     11  CA  GLU A   2      71.321  60.129 165.445  0.00  0.00    +0.149 C 
BRANCH  11  13
ATOM     12  C   ASN A   1      71.853  62.486 165.150  0.00  0.00    +0.239 C 
ATOM     13  N   GLU A   2      71.653  61.460 165.994  0.00  0.00    -0.297 N 
ATOM     14  H   GLU A   2      71.731  61.601 167.021  0.00  0.00    +0.150 HD
ATOM     15  O   ASN A   1      72.102  62.346 163.957  0.00  0.00    -0.274 OA
BRANCH  12  16
ATOM     16  CA  ASN A   1      71.680  63.890 165.704  0.00  0.00    +0.154 C 
BRANCH  16  17
ATOM     17  N   ASN A   1      72.907  64.611 165.477  0.00  0.00    -0.238 NA
ATOM     18  H   ASN A   1      73.187  64.817 164.497  0.00  0.00    +0.142 HD
ENDBRANCH  16  17
BRANCH  16  19
ATOM     19  CB  ASN A   1      70.649  64.594 164.878  0.00  0.00    +0.111 C 
BRANCH  19  20
ATOM     20  CG  ASN A   1      69.259  63.968 165.006  0.00  0.00    +0.221 C 
ATOM     21  OD1 ASN A   1      69.064  63.052 165.803  0.00  0.00    -0.275 OA
ATOM     22  ND2 ASN A   1      68.338  64.365 164.127  0.00  0.00    -0.329 N 
ATOM     23 HD21 ASN A   1      67.411  63.895 164.097  0.00  0.00    +0.145 HD
ATOM     24 HD22 ASN A   1      68.547  65.145 163.471  0.00  0.00    +0.145 HD
ENDBRANCH  19  20
ENDBRANCH  16  19
ENDBRANCH  12  16
ENDBRANCH  11  13
BRANCH  11  25
ATOM     25  CB  GLU A   2      72.588  59.267 165.310  0.00  0.00    +0.041 C 
BRANCH  25  26
ATOM     26  CG  GLU A   2      72.418  58.190 164.194  0.00  0.00    +0.116 C 
BRANCH  26  27
ATOM     27  CD  GLU A   2      73.802  57.655 163.819  0.00  0.00    +0.365 C 
ATOM     28  OE2 GLU A   2      74.182  56.630 164.424  0.00  0.00    -0.246 OA
ATOM     29  OE1 GLU A   2      74.385  58.307 162.925  0.00  0.00    -0.246 OA
ENDBRANCH  26  27
ENDBRANCH  25  26
ENDBRANCH  11  25
ENDBRANCH   7  11
ENDBRANCH   6   9
BRANCH   6  30
ATOM     30  CB  SER A   3      68.038  60.920 168.695  0.00  0.00    +0.166 C 
BRANCH  30  31
ATOM     31  OG  SER A   3      66.941  60.648 169.554  0.00  0.00    -0.380 OA
ATOM     32  H   SER A   3      67.023  59.729 169.912  0.00  0.00    +0.211 HD
ENDBRANCH  30  31
ENDBRANCH   6  30
ENDBRANCH   2   6
ENDBRANCH   1   4
BRANCH   1  33
ATOM     33  C   THR A   4      64.395  59.425 164.803  0.00  0.00    +0.243 C 
ATOM     34  N   SER A   5      63.823  59.143 165.986  0.00  0.00    -0.295 N 
ATOM     35  H   SER A   5      64.382  58.741 166.766  0.00  0.00    +0.150 HD
ATOM     36  O   THR A   4      63.783  60.024 163.886  0.00  0.00    -0.273 OA
BRANCH  34  37
ATOM     37  CA  SER A   5      62.410  59.412 166.149  0.00  0.00    +0.178 C 
BRANCH  37  38
ATOM     38  C   SER A   5      62.189  60.815 166.754  0.00  0.00    +0.243 C 
ATOM     39  N   THR A   6      63.230  61.559 167.043  0.00  0.00    -0.295 N 
ATOM     40  H   THR A   6      64.176  61.211 166.785  0.00  0.00    +0.150 HD
ATOM     41  O   SER A   5      61.049  61.244 166.981  0.00  0.00    -0.273 OA
BRANCH  39  42
ATOM     42  CA  THR A   6      63.121  62.854 167.711  0.00  0.00    +0.176 C 
BRANCH  42  43
ATOM     43  C   THR A   6      63.571  64.113 166.914  0.00  0.00    +0.243 C 
ATOM     44  O   THR A   6      63.689  65.211 167.460  0.00  0.00    -0.273 OA
ATOM     45  N   THR A   7      63.847  63.907 165.632  0.00  0.00    -0.296 N 
ATOM     46  H   THR A   7      63.665  62.970 165.220  0.00  0.00    +0.150 HD
BRANCH  45  47
ATOM     47  CA  THR A   7      64.397  64.956 164.788  0.00  0.00    +0.164 C 
BRANCH  47  48
ATOM     48  CB  THR A   7      64.721  64.377 163.354  0.00  0.00    +0.136 C 
ATOM     49  CG2 THR A   7      65.253  65.425 162.346  0.00  0.00    +0.034 C 
BRANCH  48  50
ATOM     50  OG1 THR A   7      65.578  63.244 163.510  0.00  0.00    -0.382 OA
ATOM     51  HG1 THR A   7      65.791  62.868 162.619  0.00  0.00    +0.210 HD
ENDBRANCH  48  50
ENDBRANCH  47  48
BRANCH  47  52
ATOM     52  C   THR A   7      63.635  66.225 164.735  0.00  0.00    +0.229 C 
ATOM     53  O   THR A   7      64.239  67.294 164.791  0.00  0.00    -0.286 OA
ENDBRANCH  47  52
ENDBRANCH  45  47
ENDBRANCH  42  43
BRANCH  42  54
ATOM     54  CB  THR A   6      63.781  62.827 169.096  0.00  0.00    +0.137 C 
ATOM     55  CG2 THR A   6      63.259  61.689 169.913  0.00  0.00    +0.034 C 
BRANCH  54  56
ATOM     56  OG1 THR A   6      65.219  62.637 168.960  0.00  0.00    -0.382 OA
ATOM     57  HG1 THR A   6      65.601  63.382 168.432  0.00  0.00    +0.210 HD
ENDBRANCH  54  56
ENDBRANCH  42  54
ENDBRANCH  39  42
ENDBRANCH  37  38
BRANCH  37  58
ATOM     58  CB  SER A   5      61.787  58.330 167.035  0.00  0.00    +0.166 C 
BRANCH  58  59
ATOM     59  OG  SER A   5      62.254  58.427 168.377  0.00  0.00    -0.380 OA
ATOM     60  H   SER A   5      63.238  58.318 168.391  0.00  0.00    +0.211 HD
ENDBRANCH  58  59
ENDBRANCH  37  58
ENDBRANCH  34  37
ENDBRANCH   1  33
BRANCH   1  61
ATOM     61  CB  THR A   4      66.016  57.774 163.717  0.00  0.00    +0.137 C 
ATOM     62  CG2 THR A   4      67.364  57.833 163.058  0.00  0.00    +0.034 C 
BRANCH  61  63
ATOM     63  OG1 THR A   4      66.092  56.615 164.531  0.00  0.00    -0.382 OA
ATOM     64  HG1 THR A   4      65.265  56.536 165.069  0.00  0.00    +0.210 HD
ENDBRANCH  61  63
ENDBRANCH   1  61
TORSDOF 29
REMARK  Name = ../refined-set-2016/3f6e/3f6e_pocket.pdb
REMARK  293 active torsions:
REMARK  status: ('A' for Active; 'I' for Inactive)
REMARK    1  A    between atoms: _1  and  _3
REMARK    2  A    between atoms: _3  and  _4
REMARK    3  A    between atoms: _3  and  _6
REMARK    4  A    between atoms: _6  and  _7
REMARK    5  A    between atoms: _13  and  _14
REMARK    6  A    between atoms: _19  and  _21
REMARK    7  A    between atoms: _21  and  _22
REMARK    8  A    between atoms: _24  and  _26
REMARK    9  A    between atoms: _26  and  _27
REMARK   10  A    between atoms: _26  and  _29
REMARK   11  A    between atoms: _29  and  _30
REMARK   12  A    between atoms: _32  and  _34
REMARK   13  A    between atoms: _34  and  _35
REMARK   14  A    between atoms: _34  and  _37
REMARK   15  A    between atoms: _37  and  _38
REMARK   16  A    between atoms: _43  and  _45
REMARK   17  A    between atoms: _45  and  _46
REMARK   18  A    between atoms: _45  and  _48
REMARK   19  A    between atoms: _48  and  _49
REMARK   20  A    between atoms: _49  and  _50
REMARK   21  A    between atoms: _53  and  _55
REMARK   22  A    between atoms: _55  and  _56
REMARK   23  A    between atoms: _55  and  _58
REMARK   24  A    between atoms: _58  and  _59
REMARK   25  A    between atoms: _62  and  _64
REMARK   26  A    between atoms: _64  and  _65
REMARK   27  A    between atoms: _64  and  _67
REMARK   28  A    between atoms: _67  and  _68
REMARK   29  A    between atoms: _71  and  _73
REMARK   30  A    between atoms: _73  and  _74
REMARK   31  A    between atoms: _77  and  _79
REMARK   32  A    between atoms: _79  and  _80
REMARK   33  A    between atoms: _79  and  _82
REMARK   34  A    between atoms: _82  and  _83
REMARK   35  A    between atoms: _86  and  _88
REMARK   36  A    between atoms: _88  and  _89
REMARK   37  A    between atoms: _88  and  _91
REMARK   38  A    between atoms: _91  and  _92
REMARK   39  A    between atoms: _92  and  _93
REMARK   40  A    between atoms: _98  and  _100
REMARK   41  A    between atoms: _100  and  _101
REMARK   42  A    between atoms: _100  and  _103
REMARK   43  A    between atoms: _103  and  _104
REMARK   44  A    between atoms: _104  and  _105
REMARK   45  A    between atoms: _108  and  _110
REMARK   46  A    between atoms: _110  and  _111
REMARK   47  A    between atoms: _114  and  _116
REMARK   48  A    between atoms: _116  and  _117
REMARK   49  A    between atoms: _116  and  _119
REMARK   50  A    between atoms: _119  and  _120
REMARK   51  A    between atoms: _123  and  _125
REMARK   52  A    between atoms: _125  and  _126
REMARK   53  A    between atoms: _125  and  _128
REMARK   54  A    between atoms: _128  and  _129
REMARK   55  A    between atoms: _134  and  _136
REMARK   56  A    between atoms: _136  and  _137
REMARK   57  A    between atoms: _136  and  _139
REMARK   58  A    between atoms: _139  and  _140
REMARK   59  A    between atoms: _142  and  _144
REMARK   60  A    between atoms: _144  and  _145
REMARK   61  A    between atoms: _148  and  _150
REMARK   62  A    between atoms: _150  and  _151
REMARK   63  A    between atoms: _154  and  _156
REMARK   64  A    between atoms: _156  and  _157
REMARK   65  A    between atoms: _159  and  _161
REMARK   66  A    between atoms: _161  and  _162
REMARK   67  A    between atoms: _161  and  _164
REMARK   68  A    between atoms: _164  and  _165
REMARK   69  A    between atoms: _168  and  _170
REMARK   70  A    between atoms: _170  and  _171
REMARK   71  A    between atoms: _173  and  _175
REMARK   72  A    between atoms: _175  and  _176
REMARK   73  A    between atoms: _175  and  _178
REMARK   74  A    between atoms: _178  and  _179
REMARK   75  A    between atoms: _184  and  _186
REMARK   76  A    between atoms: _186  and  _187
REMARK   77  A    between atoms: _190  and  _192
REMARK   78  A    between atoms: _192  and  _193
REMARK   79  A    between atoms: _192  and  _195
REMARK   80  A    between atoms: _195  and  _196
REMARK   81  A    between atoms: _196  and  _197
REMARK   82  A    between atoms: _202  and  _204
REMARK   83  A    between atoms: _204  and  _205
REMARK   84  A    between atoms: _204  and  _207
REMARK   85  A    between atoms: _207  and  _208
REMARK   86  A    between atoms: _211  and  _213
REMARK   87  A    between atoms: _213  and  _214
REMARK   88  A    between atoms: _213  and  _216
REMARK   89  A    between atoms: _216  and  _217
REMARK   90  A    between atoms: _220  and  _222
REMARK   91  A    between atoms: _222  and  _223
REMARK   92  A    between atoms: _225  and  _227
REMARK   93  A    between atoms: _227  and  _228
REMARK   94  A    between atoms: _231  and  _233
REMARK   95  A    between atoms: _233  and  _234
REMARK   96  A    between atoms: _233  and  _236
REMARK   97  A    between atoms: _236  and  _237
REMARK   98  A    between atoms: _239  and  _241
REMARK   99  A    between atoms: _241  and  _242
REMARK  100  A    between atoms: _241  and  _244
REMARK  101  A    between atoms: _244  and  _245
REMARK  102  A    between atoms: _250  and  _252
REMARK  103  A    between atoms: _252  and  _253
REMARK  104  A    between atoms: _252  and  _255
REMARK  105  A    between atoms: _255  and  _256
REMARK  106  A    between atoms: _258  and  _260
REMARK  107  A    between atoms: _260  and  _261
REMARK  108  A    between atoms: _264  and  _266
REMARK  109  A    between atoms: _266  and  _267
REMARK  110  A    between atoms: _270  and  _272
REMARK  111  A    between atoms: _272  and  _273
REMARK  112  A    between atoms: _272  and  _275
REMARK  113  A    between atoms: _275  and  _276
REMARK  114  A    between atoms: _276  and  _277
REMARK  115  A    between atoms: _277  and  _278
REMARK  116  A    between atoms: _287  and  _289
REMARK  117  A    between atoms: _289  and  _290
REMARK  118  A    between atoms: _289  and  _292
REMARK  119  A    between atoms: _292  and  _293
REMARK  120  A    between atoms: _298  and  _299
REMARK  121  A    between atoms: _301  and  _303
REMARK  122  A    between atoms: _303  and  _304
REMARK  123  A    between atoms: _303  and  _306
REMARK  124  A    between atoms: _306  and  _307
REMARK  125  A    between atoms: _312  and  _314
REMARK  126  A    between atoms: _314  and  _315
REMARK  127  A    between atoms: _314  and  _317
REMARK  128  A    between atoms: _317  and  _318
REMARK  129  A    between atoms: _318  and  _319
REMARK  130  A    between atoms: _325  and  _326
REMARK  131  A    between atoms: _331  and  _333
REMARK  132  A    between atoms: _333  and  _334
REMARK  133  A    between atoms: _333  and  _336
REMARK  134  A    between atoms: _336  and  _337
REMARK  135  A    between atoms: _342  and  _344
REMARK  136  A    between atoms: _344  and  _345
REMARK  137  A    between atoms: _344  and  _347
REMARK  138  A    between atoms: _347  and  _348
REMARK  139  A    between atoms: _348  and  _349
REMARK  140  A    between atoms: _352  and  _354
REMARK  141  A    between atoms: _354  and  _355
REMARK  142  A    between atoms: _354  and  _357
REMARK  143  A    between atoms: _357  and  _358
REMARK  144  A    between atoms: _360  and  _362
REMARK  145  A    between atoms: _362  and  _363
REMARK  146  A    between atoms: _362  and  _365
REMARK  147  A    between atoms: _365  and  _366
REMARK  148  A    between atoms: _369  and  _371
REMARK  149  A    between atoms: _371  and  _372
REMARK  150  A    between atoms: _371  and  _374
REMARK  151  A    between atoms: _374  and  _375
REMARK  152  A    between atoms: _377  and  _379
REMARK  153  A    between atoms: _379  and  _380
REMARK  154  A    between atoms: _379  and  _382
REMARK  155  A    between atoms: _382  and  _383
REMARK  156  A    between atoms: _386  and  _388
REMARK  157  A    between atoms: _388  and  _389
REMARK  158  A    between atoms: _388  and  _391
REMARK  159  A    between atoms: _391  and  _392
REMARK  160  A    between atoms: _395  and  _397
REMARK  161  A    between atoms: _397  and  _398
REMARK  162  A    between atoms: _397  and  _400
REMARK  163  A    between atoms: _400  and  _401
REMARK  164  A    between atoms: _401  and  _402
REMARK  165  A    between atoms: _407  and  _409
REMARK  166  A    between atoms: _409  and  _410
REMARK  167  A    between atoms: _409  and  _412
REMARK  168  A    between atoms: _412  and  _413
REMARK  169  A    between atoms: _419  and  _421
REMARK  170  A    between atoms: _421  and  _422
REMARK  171  A    between atoms: _421  and  _424
REMARK  172  A    between atoms: _426  and  _428
REMARK  173  A    between atoms: _428  and  _429
REMARK  174  A    between atoms: _432  and  _434
REMARK  175  A    between atoms: _434  and  _435
REMARK  176  A    between atoms: _437  and  _439
REMARK  177  A    between atoms: _439  and  _440
REMARK  178  A    between atoms: _442  and  _444
REMARK  179  A    between atoms: _444  and  _445
REMARK  180  A    between atoms: _444  and  _447
REMARK  181  A    between atoms: _447  and  _448
REMARK  182  A    between atoms: _451  and  _453
REMARK  183  A    between atoms: _453  and  _454
REMARK  184  A    between atoms: _456  and  _458
REMARK  185  A    between atoms: _458  and  _459
REMARK  186  A    between atoms: _458  and  _461
REMARK  187  A    between atoms: _461  and  _462
REMARK  188  A    between atoms: _468  and  _470
REMARK  189  A    between atoms: _470  and  _471
REMARK  190  A    between atoms: _470  and  _473
REMARK  191  A    between atoms: _476  and  _478
REMARK  192  A    between atoms: _478  and  _479
REMARK  193  A    between atoms: _478  and  _481
REMARK  194  A    between atoms: _481  and  _482
REMARK  195  A    between atoms: _485  and  _487
REMARK  196  A    between atoms: _487  and  _488
REMARK  197  A    between atoms: _490  and  _492
REMARK  198  A    between atoms: _492  and  _493
REMARK  199  A    between atoms: _492  and  _495
REMARK  200  A    between atoms: _495  and  _496
REMARK  201  A    between atoms: _496  and  _497
REMARK  202  A    between atoms: _497  and  MG_734
REMARK  203  A    between atoms: _499  and  _501
REMARK  204  A    between atoms: _501  and  _502
REMARK  205  A    between atoms: _504  and  _506
REMARK  206  A    between atoms: _506  and  _507
REMARK  207  A    between atoms: _506  and  _509
REMARK  208  A    between atoms: _509  and  _510
REMARK  209  A    between atoms: _512  and  _514
REMARK  210  A    between atoms: _514  and  _515
REMARK  211  A    between atoms: _518  and  _520
REMARK  212  A    between atoms: _520  and  _521
REMARK  213  A    between atoms: _520  and  _523
REMARK  214  A    between atoms: _523  and  _524
REMARK  215  A    between atoms: _529  and  _531
REMARK  216  A    between atoms: _531  and  _532
REMARK  217  A    between atoms: _531  and  _534
REMARK  218  A    between atoms: _534  and  _535
REMARK  219  A    between atoms: _540  and  _541
REMARK  220  A    between atoms: _543  and  _545
REMARK  221  A    between atoms: _545  and  _546
REMARK  222  A    between atoms: _545  and  _548
REMARK  223  A    between atoms: _548  and  _549
REMARK  224  A    between atoms: _552  and  _554
REMARK  225  A    between atoms: _554  and  _555
REMARK  226  A    between atoms: _554  and  _557
REMARK  227  A    between atoms: _557  and  _558
REMARK  228  A    between atoms: _558  and  _559
REMARK  229  A    between atoms: _561  and  _563
REMARK  230  A    between atoms: _563  and  _564
REMARK  231  A    between atoms: _563  and  _566
REMARK  232  A    between atoms: _566  and  _567
REMARK  233  A    between atoms: _572  and  _574
REMARK  234  A    between atoms: _574  and  _575
REMARK  235  A    between atoms: _574  and  _577
REMARK  236  A    between atoms: _577  and  _578
REMARK  237  A    between atoms: _583  and  _585
REMARK  238  A    between atoms: _585  and  _586
REMARK  239  A    between atoms: _588  and  _590
REMARK  240  A    between atoms: _590  and  _591
REMARK  241  A    between atoms: _590  and  _593
REMARK  242  A    between atoms: _591  and  _592
REMARK  243  A    between atoms: _591  and  _597
REMARK  244  A    between atoms: _592  and  MG_734
REMARK  245  A    between atoms: _593  and  _594
REMARK  246  A    between atoms: _597  and  _599
REMARK  247  A    between atoms: _599  and  _600
REMARK  248  A    between atoms: _599  and  _602
REMARK  249  A    between atoms: _602  and  _603
REMARK  250  A    between atoms: _608  and  _609
REMARK  251  A    between atoms: _611  and  _613
REMARK  252  A    between atoms: _613  and  _614
REMARK  253  A    between atoms: _616  and  _618
REMARK  254  A    between atoms: _618  and  _619
REMARK  255  A    between atoms: _622  and  _624
REMARK  256  A    between atoms: _624  and  _625
REMARK  257  A    between atoms: _624  and  _627
REMARK  258  A    between atoms: _627  and  _628
REMARK  259  A    between atoms: _631  and  _633
REMARK  260  A    between atoms: _633  and  _634
REMARK  261  A    between atoms: _633  and  _636
REMARK  262  A    between atoms: _636  and  _637
REMARK  263  A    between atoms: _637  and  _638
REMARK  264  A    between atoms: _638  and  _639
REMARK  265  A    between atoms: _648  and  _650
REMARK  266  A    between atoms: _650  and  _651
REMARK  267  A    between atoms: _650  and  _653
REMARK  268  A    between atoms: _653  and  _654
REMARK  269  A    between atoms: _664  and  _666
REMARK  270  A    between atoms: _666  and  _667
REMARK  271  A    between atoms: _666  and  _669
REMARK  272  A    between atoms: _669  and  _670
REMARK  273  A    between atoms: _676  and  _678
REMARK  274  A    between atoms: _678  and  _679
REMARK  275  A    between atoms: _681  and  _683
REMARK  276  A    between atoms: _683  and  _684
REMARK  277  A    between atoms: _683  and  _686
REMARK  278  A    between atoms: _686  and  _687
REMARK  279  A    between atoms: _690  and  _692
REMARK  280  A    between atoms: _692  and  _693
REMARK  281  A    between atoms: _692  and  _695
REMARK  282  A    between atoms: _698  and  _700
REMARK  283  A    between atoms: _700  and  _701
REMARK  284  A    between atoms: _700  and  _703
REMARK  285  A    between atoms: _703  and  _704
REMARK  286  A    between atoms: _710  and  _712
REMARK  287  A    between atoms: _712  and  _713
REMARK  288  A    between atoms: _712  and  _715
REMARK  289  A    between atoms: _715  and  _716
REMARK  290  A    between atoms: _719  and  _721
REMARK  291  A    between atoms: _721  and  _722
REMARK  292  A    between atoms: _721  and  _724
REMARK  293  A    between atoms: _728  and  _729
REMARK                            x       y       z     vdW  Elec       q    Type
REMARK                         _______ _______ _______ _____ _____    ______ ____
ROOT
ATOM      1  CB  GLN A   1      61.388  67.172 169.338  0.00  0.00    +0.035 C 
ENDROOT
BRANCH   1   2
ATOM      2  CA  GLN A   1      61.652  68.151 168.157  0.00  0.00    +0.134 C 
BRANCH   2   3
ATOM      3  N   GLN A   1      61.596  67.447 166.877  0.00  0.00    -0.239 NA
ATOM      4  H   GLN A   1      61.584  66.407 166.858  0.00  0.00    +0.142 HD
ENDBRANCH   2   3
BRANCH   2   5
ATOM      5  C   GLN A   1      62.997  68.809 168.321  0.00  0.00    +0.224 C 
ATOM      6  O   GLN A   1      63.083  69.902 168.910  0.00  0.00    -0.287 OA
ENDBRANCH   2   5
ENDBRANCH   1   2
BRANCH   1   7
ATOM      7  CG  GLN A   1      60.007  66.563 169.303  0.00  0.00    +0.087 C 
BRANCH   7   8
ATOM      8  CD  GLN A   1      60.004  65.135 168.710  0.00  0.00    +0.219 C 
ATOM      9  NE2 GLN A   1      59.444  64.170 169.489  0.00  0.00    -0.329 N 
ATOM     10 HE21 GLN A   1      59.049  64.417 170.419  0.00  0.00    +0.145 HD
ATOM     11 HE22 GLN A   1      59.411  63.186 169.154  0.00  0.00    +0.145 HD
ATOM     12  OE1 GLN A   1      60.491  64.887 167.586  0.00  0.00    -0.275 OA
ENDBRANCH   7   8
ENDBRANCH   1   7
TORSDOF 5
REMARK  Name = ../refined-set-2016/3f6e/3f6e_pocket.pdb
REMARK  293 active torsions:
REMARK  status: ('A' for Active; 'I' for Inactive)
REMARK    1  A    between atoms: _1  and  _3
REMARK    2  A    between atoms: _3  and  _4
REMARK    3  A    between atoms: _3  and  _6
REMARK    4  A    between atoms: _6  and  _7
REMARK    5  A    between atoms: _13  and  _14
REMARK    6  A    between atoms: _19  and  _21
REMARK    7  A    between atoms: _21  and  _22
REMARK    8  A    between atoms: _24  and  _26
REMARK    9  A    between atoms: _26  and  _27
REMARK   10  A    between atoms: _26  and  _29
REMARK   11  A    between atoms: _29  and  _30
REMARK   12  A    between atoms: _32  and  _34
REMARK   13  A    between atoms: _34  and  _35
REMARK   14  A    between atoms: _34  and  _37
REMARK   15  A    between atoms: _37  and  _38
REMARK   16  A    between atoms: _43  and  _45
REMARK   17  A    between atoms: _45  and  _46
REMARK   18  A    between atoms: _45  and  _48
REMARK   19  A    between atoms: _48  and  _49
REMARK   20  A    between atoms: _49  and  _50
REMARK   21  A    between atoms: _53  and  _55
REMARK   22  A    between atoms: _55  and  _56
REMARK   23  A    between atoms: _55  and  _58
REMARK   24  A    between atoms: _58  and  _59
REMARK   25  A    between atoms: _62  and  _64
REMARK   26  A    between atoms: _64  and  _65
REMARK   27  A    between atoms: _64  and  _67
REMARK   28  A    between atoms: _67  and  _68
REMARK   29  A    between atoms: _71  and  _73
REMARK   30  A    between atoms: _73  and  _74
REMARK   31  A    between atoms: _77  and  _79
REMARK   32  A    between atoms: _79  and  _80
REMARK   33  A    between atoms: _79  and  _82
REMARK   34  A    between atoms: _82  and  _83
REMARK   35  A    between atoms: _86  and  _88
REMARK   36  A    between atoms: _88  and  _89
REMARK   37  A    between atoms: _88  and  _91
REMARK   38  A    between atoms: _91  and  _92
REMARK   39  A    between atoms: _92  and  _93
REMARK   40  A    between atoms: _98  and  _100
REMARK   41  A    between atoms: _100  and  _101
REMARK   42  A    between atoms: _100  and  _103
REMARK   43  A    between atoms: _103  and  _104
REMARK   44  A    between atoms: _104  and  _105
REMARK   45  A    between atoms: _108  and  _110
REMARK   46  A    between atoms: _110  and  _111
REMARK   47  A    between atoms: _114  and  _116
REMARK   48  A    between atoms: _116  and  _117
REMARK   49  A    between atoms: _116  and  _119
REMARK   50  A    between atoms: _119  and  _120
REMARK   51  A    between atoms: _123  and  _125
REMARK   52  A    between atoms: _125  and  _126
REMARK   53  A    between atoms: _125  and  _128
REMARK   54  A    between atoms: _128  and  _129
REMARK   55  A    between atoms: _134  and  _136
REMARK   56  A    between atoms: _136  and  _137
REMARK   57  A    between atoms: _136  and  _139
REMARK   58  A    between atoms: _139  and  _140
REMARK   59  A    between atoms: _142  and  _144
REMARK   60  A    between atoms: _144  and  _145
REMARK   61  A    between atoms: _148  and  _150
REMARK   62  A    between atoms: _150  and  _151
REMARK   63  A    between atoms: _154  and  _156
REMARK   64  A    between atoms: _156  and  _157
REMARK   65  A    between atoms: _159  and  _161
REMARK   66  A    between atoms: _161  and  _162
REMARK   67  A    between atoms: _161  and  _164
REMARK   68  A    between atoms: _164  and  _165
REMARK   69  A    between atoms: _168  and  _170
REMARK   70  A    between atoms: _170  and  _171
REMARK   71  A    between atoms: _173  and  _175
REMARK   72  A    between atoms: _175  and  _176
REMARK   73  A    between atoms: _175  and  _178
REMARK   74  A    between atoms: _178  and  _179
REMARK   75  A    between atoms: _184  and  _186
REMARK   76  A    between atoms: _186  and  _187
REMARK   77  A    between atoms: _190  and  _192
REMARK   78  A    between atoms: _192  and  _193
REMARK   79  A    between atoms: _192  and  _195
REMARK   80  A    between atoms: _195  and  _196
REMARK   81  A    between atoms: _196  and  _197
REMARK   82  A    between atoms: _202  and  _204
REMARK   83  A    between atoms: _204  and  _205
REMARK   84  A    between atoms: _204  and  _207
REMARK   85  A    between atoms: _207  and  _208
REMARK   86  A    between atoms: _211  and  _213
REMARK   87  A    between atoms: _213  and  _214
REMARK   88  A    between atoms: _213  and  _216
REMARK   89  A    between atoms: _216  and  _217
REMARK   90  A    between atoms: _220  and  _222
REMARK   91  A    between atoms: _222  and  _223
REMARK   92  A    between atoms: _225  and  _227
REMARK   93  A    between atoms: _227  and  _228
REMARK   94  A    between atoms: _231  and  _233
REMARK   95  A    between atoms: _233  and  _234
REMARK   96  A    between atoms: _233  and  _236
REMARK   97  A    between atoms: _236  and  _237
REMARK   98  A    between atoms: _239  and  _241
REMARK   99  A    between atoms: _241  and  _242
REMARK  100  A    between atoms: _241  and  _244
REMARK  101  A    between atoms: _244  and  _245
REMARK  102  A    between atoms: _250  and  _252
REMARK  103  A    between atoms: _252  and  _253
REMARK  104  A    between atoms: _252  and  _255
REMARK  105  A    between atoms: _255  and  _256
REMARK  106  A    between atoms: _258  and  _260
REMARK  107  A    between atoms: _260  and  _261
REMARK  108  A    between atoms: _264  and  _266
REMARK  109  A    between atoms: _266  and  _267
REMARK  110  A    between atoms: _270  and  _272
REMARK  111  A    between atoms: _272  and  _273
REMARK  112  A    between atoms: _272  and  _275
REMARK  113  A    between atoms: _275  and  _276
REMARK  114  A    between atoms: _276  and  _277
REMARK  115  A    between atoms: _277  and  _278
REMARK  116  A    between atoms: _287  and  _289
REMARK  117  A    between atoms: _289  and  _290
REMARK  118  A    between atoms: _289  and  _292
REMARK  119  A    between atoms: _292  and  _293
REMARK  120  A    between atoms: _298  and  _299
REMARK  121  A    between atoms: _301  and  _303
REMARK  122  A    between atoms: _303  and  _304
REMARK  123  A    between atoms: _303  and  _306
REMARK  124  A    between atoms: _306  and  _307
REMARK  125  A    between atoms: _312  and  _314
REMARK  126  A    between atoms: _314  and  _315
REMARK  127  A    between atoms: _314  and  _317
REMARK  128  A    between atoms: _317  and  _318
REMARK  129  A    between atoms: _318  and  _319
REMARK  130  A    between atoms: _325  and  _326
REMARK  131  A    between atoms: _331  and  _333
REMARK  132  A    between atoms: _333  and  _334
REMARK  133  A    between atoms: _333  and  _336
REMARK  134  A    between atoms: _336  and  _337
REMARK  135  A    between atoms: _342  and  _344
REMARK  136  A    between atoms: _344  and  _345
REMARK  137  A    between atoms: _344  and  _347
REMARK  138  A    between atoms: _347  and  _348
REMARK  139  A    between atoms: _348  and  _349
REMARK  140  A    between atoms: _352  and  _354
REMARK  141  A    between atoms: _354  and  _355
REMARK  142  A    between atoms: _354  and  _357
REMARK  143  A    between atoms: _357  and  _358
REMARK  144  A    between atoms: _360  and  _362
REMARK  145  A    between atoms: _362  and  _363
REMARK  146  A    between atoms: _362  and  _365
REMARK  147  A    between atoms: _365  and  _366
REMARK  148  A    between atoms: _369  and  _371
REMARK  149  A    between atoms: _371  and  _372
REMARK  150  A    between atoms: _371  and  _374
REMARK  151  A    between atoms: _374  and  _375
REMARK  152  A    between atoms: _377  and  _379
REMARK  153  A    between atoms: _379  and  _380
REMARK  154  A    between atoms: _379  and  _382
REMARK  155  A    between atoms: _382  and  _383
REMARK  156  A    between atoms: _386  and  _388
REMARK  157  A    between atoms: _388  and  _389
REMARK  158  A    between atoms: _388  and  _391
REMARK  159  A    between atoms: _391  and  _392
REMARK  160  A    between atoms: _395  and  _397
REMARK  161  A    between atoms: _397  and  _398
REMARK  162  A    between atoms: _397  and  _400
REMARK  163  A    between atoms: _400  and  _401
REMARK  164  A    between atoms: _401  and  _402
REMARK  165  A    between atoms: _407  and  _409
REMARK  166  A    between atoms: _409  and  _410
REMARK  167  A    between atoms: _409  and  _412
REMARK  168  A    between atoms: _412  and  _413
REMARK  169  A    between atoms: _419  and  _421
REMARK  170  A    between atoms: _421  and  _422
REMARK  171  A    between atoms: _421  and  _424
REMARK  172  A    between atoms: _426  and  _428
REMARK  173  A    between atoms: _428  and  _429
REMARK  174  A    between atoms: _432  and  _434
REMARK  175  A    between atoms: _434  and  _435
REMARK  176  A    between atoms: _437  and  _439
REMARK  177  A    between atoms: _439  and  _440
REMARK  178  A    between atoms: _442  and  _444
REMARK  179  A    between atoms: _444  and  _445
REMARK  180  A    between atoms: _444  and  _447
REMARK  181  A    between atoms: _447  and  _448
REMARK  182  A    between atoms: _451  and  _453
REMARK  183  A    between atoms: _453  and  _454
REMARK  184  A    between atoms: _456  and  _458
REMARK  185  A    between atoms: _458  and  _459
REMARK  186  A    between atoms: _458  and  _461
REMARK  187  A    between atoms: _461  and  _462
REMARK  188  A    between atoms: _468  and  _470
REMARK  189  A    between atoms: _470  and  _471
REMARK  190  A    between atoms: _470  and  _473
REMARK  191  A    between atoms: _476  and  _478
REMARK  192  A    between atoms: _478  and  _479
REMARK  193  A    between atoms: _478  and  _481
REMARK  194  A    between atoms: _481  and  _482
REMARK  195  A    between atoms: _485  and  _487
REMARK  196  A    between atoms: _487  and  _488
REMARK  197  A    between atoms: _490  and  _492
REMARK  198  A    between atoms: _492  and  _493
REMARK  199  A    between atoms: _492  and  _495
REMARK  200  A    between atoms: _495  and  _496
REMARK  201  A    between atoms: _496  and  _497
REMARK  202  A    between atoms: _497  and  MG_734
REMARK  203  A    between atoms: _499  and  _501
REMARK  204  A    between atoms: _501  and  _502
REMARK  205  A    between atoms: _504  and  _506
REMARK  206  A    between atoms: _506  and  _507
REMARK  207  A    between atoms: _506  and  _509
REMARK  208  A    between atoms: _509  and  _510
REMARK  209  A    between atoms: _512  and  _514
REMARK  210  A    between atoms: _514  and  _515
REMARK  211  A    between atoms: _518  and  _520
REMARK  212  A    between atoms: _520  and  _521
REMARK  213  A    between atoms: _520  and  _523
REMARK  214  A    between atoms: _523  and  _524
REMARK  215  A    between atoms: _529  and  _531
REMARK  216  A    between atoms: _531  and  _532
REMARK  217  A    between atoms: _531  and  _534
REMARK  218  A    between atoms: _534  and  _535
REMARK  219  A    between atoms: _540  and  _541
REMARK  220  A    between atoms: _543  and  _545
REMARK  221  A    between atoms: _545  and  _546
REMARK  222  A    between atoms: _545  and  _548
REMARK  223  A    between atoms: _548  and  _549
REMARK  224  A    between atoms: _552  and  _554
REMARK  225  A    between atoms: _554  and  _555
REMARK  226  A    between atoms: _554  and  _557
REMARK  227  A    between atoms: _557  and  _558
REMARK  228  A    between atoms: _558  and  _559
REMARK  229  A    between atoms: _561  and  _563
REMARK  230  A    between atoms: _563  and  _564
REMARK  231  A    between atoms: _563  and  _566
REMARK  232  A    between atoms: _566  and  _567
REMARK  233  A    between atoms: _572  and  _574
REMARK  234  A    between atoms: _574  and  _575
REMARK  235  A    between atoms: _574  and  _577
REMARK  236  A    between atoms: _577  and  _578
REMARK  237  A    between atoms: _583  and  _585
REMARK  238  A    between atoms: _585  and  _586
REMARK  239  A    between atoms: _588  and  _590
REMARK  240  A    between atoms: _590  and  _591
REMARK  241  A    between atoms: _590  and  _593
REMARK  242  A    between atoms: _591  and  _592
REMARK  243  A    between atoms: _591  and  _597
REMARK  244  A    between atoms: _592  and  MG_734
REMARK  245  A    between atoms: _593  and  _594
REMARK  246  A    between atoms: _597  and  _599
REMARK  247  A    between atoms: _599  and  _600
REMARK  248  A    between atoms: _599  and  _602
REMARK  249  A    between atoms: _602  and  _603
REMARK  250  A    between atoms: _608  and  _609
REMARK  251  A    between atoms: _611  and  _613
REMARK  252  A    between atoms: _613  and  _614
REMARK  253  A    between atoms: _616  and  _618
REMARK  254  A    between atoms: _618  and  _619
REMARK  255  A    between atoms: _622  and  _624
REMARK  256  A    between atoms: _624  and  _625
REMARK  257  A    between atoms: _624  and  _627
REMARK  258  A    between atoms: _627  and  _628
REMARK  259  A    between atoms: _631  and  _633
REMARK  260  A    between atoms: _633  and  _634
REMARK  261  A    between atoms: _633  and  _636
REMARK  262  A    between atoms: _636  and  _637
REMARK  263  A    between atoms: _637  and  _638
REMARK  264  A    between atoms: _638  and  _639
REMARK  265  A    between atoms: _648  and  _650
REMARK  266  A    between atoms: _650  and  _651
REMARK  267  A    between atoms: _650  and  _653
REMARK  268  A    between atoms: _653  and  _654
REMARK  269  A    between atoms: _664  and  _666
REMARK  270  A    between atoms: _666  and  _667
REMARK  271  A    between atoms: _666  and  _669
REMARK  272  A    between atoms: _669  and  _670
REMARK  273  A    between atoms: _676  and  _678
REMARK  274  A    between atoms: _678  and  _679
REMARK  275  A    between atoms: _681  and  _683
REMARK  276  A    between atoms: _683  and  _684
REMARK  277  A    between atoms: _683  and  _686
REMARK  278  A    between atoms: _686  and  _687
REMARK  279  A    between atoms: _690  and  _692
REMARK  280  A    between atoms: _692  and  _693
REMARK  281  A    between atoms: _692  and  _695
REMARK  282  A    between atoms: _698  and  _700
REMARK  283  A    between atoms: _700  and  _701
REMARK  284  A    between atoms: _700  and  _703
REMARK  285  A    between atoms: _703  and  _704
REMARK  286  A    between atoms: _710  and  _712
REMARK  287  A    between atoms: _712  and  _713
REMARK  288  A    between atoms: _712  and  _715
REMARK  289  A    between atoms: _715  and  _716
REMARK  290  A    between atoms: _719  and  _721
REMARK  291  A    between atoms: _721  and  _722
REMARK  292  A    between atoms: _721  and  _724
REMARK  293  A    between atoms: _728  and  _729
REMARK                            x       y       z     vdW  Elec       q    Type
REMARK                         _______ _______ _______ _____ _____    ______ ____
ROOT
ATOM      1  CA  PHE A   1      72.775  64.059 160.765  0.00  0.00    +0.149 C 
ENDROOT
BRANCH   1   2
ATOM      2  C   PHE A   1      73.129  63.244 159.499  0.00  0.00    +0.239 C 
ATOM      3  N   CYS A   2      73.390  61.982 159.693  0.00  0.00    -0.297 N 
ATOM      4  H   CYS A   2      73.278  61.623 160.663  0.00  0.00    +0.150 HD
ATOM      5  O   PHE A   1      73.156  63.811 158.418  0.00  0.00    -0.274 OA
BRANCH   3   6
ATOM      6  CA  CYS A   2      73.831  61.009 158.665  0.00  0.00    +0.149 C 
BRANCH   6   7
ATOM      7  CB  CYS A   2      73.664  59.567 159.188  0.00  0.00    +0.096 C 
ATOM      8  SG  CYS A   2      71.995  59.197 159.700  0.00  0.00    -0.080 S 
ENDBRANCH   6   7
BRANCH   6   9
ATOM      9  C   CYS A   2      73.142  61.234 157.330  0.00  0.00    +0.228 C 
ATOM     10  O   CYS A   2      71.932  60.959 157.195  0.00  0.00    -0.286 OA
ENDBRANCH   6   9
ENDBRANCH   3   6
ENDBRANCH   1   2
BRANCH   1  11
ATOM     11  N   PHE A   1      73.604  65.214 160.711  0.00  0.00    -0.238 NA
ATOM     12  H   PHE A   1      73.779  65.638 159.777  0.00  0.00    +0.142 HD
ENDBRANCH   1  11
BRANCH   1  13
ATOM     13  CB  PHE A   1      71.281  64.494 160.725  0.00  0.00    +0.053 C 
BRANCH  13  14
ATOM     14  CG  PHE A   1      70.259  63.393 160.970  0.00  0.00    -0.020 A 
ATOM     15  CD2 PHE A   1      70.576  62.159 161.489  0.00  0.00    -0.004 A 
ATOM     16  CE2 PHE A   1      69.562  61.188 161.757  0.00  0.00    -0.000 A 
ATOM     17  CZ  PHE A   1      68.201  61.477 161.540  0.00  0.00    -0.000 A 
ATOM     18  CE1 PHE A   1      67.846  62.735 161.067  0.00  0.00    -0.000 A 
ATOM     19  CD1 PHE A   1      68.878  63.707 160.805  0.00  0.00    -0.004 A 
ENDBRANCH  13  14
ENDBRANCH   1  13
TORSDOF 7
REMARK  Name = ../refined-set-2016/3f6e/3f6e_pocket.pdb
REMARK  293 active torsions:
REMARK  status: ('A' for Active; 'I' for Inactive)
REMARK    1  A    between atoms: _1  and  _3
REMARK    2  A    between atoms: _3  and  _4
REMARK    3  A    between atoms: _3  and  _6
REMARK    4  A    between atoms: _6  and  _7
REMARK    5  A    between atoms: _13  and  _14
REMARK    6  A    between atoms: _19  and  _21
REMARK    7  A    between atoms: _21  and  _22
REMARK    8  A    between atoms: _24  and  _26
REMARK    9  A    between atoms: _26  and  _27
REMARK   10  A    between atoms: _26  and  _29
REMARK   11  A    between atoms: _29  and  _30
REMARK   12  A    between atoms: _32  and  _34
REMARK   13  A    between atoms: _34  and  _35
REMARK   14  A    between atoms: _34  and  _37
REMARK   15  A    between atoms: _37  and  _38
REMARK   16  A    between atoms: _43  and  _45
REMARK   17  A    between atoms: _45  and  _46
REMARK   18  A    between atoms: _45  and  _48
REMARK   19  A    between atoms: _48  and  _49
REMARK   20  A    between atoms: _49  and  _50
REMARK   21  A    between atoms: _53  and  _55
REMARK   22  A    between atoms: _55  and  _56
REMARK   23  A    between atoms: _55  and  _58
REMARK   24  A    between atoms: _58  and  _59
REMARK   25  A    between atoms: _62  and  _64
REMARK   26  A    between atoms: _64  and  _65
REMARK   27  A    between atoms: _64  and  _67
REMARK   28  A    between atoms: _67  and  _68
REMARK   29  A    between atoms: _71  and  _73
REMARK   30  A    between atoms: _73  and  _74
REMARK   31  A    between atoms: _77  and  _79
REMARK   32  A    between atoms: _79  and  _80
REMARK   33  A    between atoms: _79  and  _82
REMARK   34  A    between atoms: _82  and  _83
REMARK   35  A    between atoms: _86  and  _88
REMARK   36  A    between atoms: _88  and  _89
REMARK   37  A    between atoms: _88  and  _91
REMARK   38  A    between atoms: _91  and  _92
REMARK   39  A    between atoms: _92  and  _93
REMARK   40  A    between atoms: _98  and  _100
REMARK   41  A    between atoms: _100  and  _101
REMARK   42  A    between atoms: _100  and  _103
REMARK   43  A    between atoms: _103  and  _104
REMARK   44  A    between atoms: _104  and  _105
REMARK   45  A    between atoms: _108  and  _110
REMARK   46  A    between atoms: _110  and  _111
REMARK   47  A    between atoms: _114  and  _116
REMARK   48  A    between atoms: _116  and  _117
REMARK   49  A    between atoms: _116  and  _119
REMARK   50  A    between atoms: _119  and  _120
REMARK   51  A    between atoms: _123  and  _125
REMARK   52  A    between atoms: _125  and  _126
REMARK   53  A    between atoms: _125  and  _128
REMARK   54  A    between atoms: _128  and  _129
REMARK   55  A    between atoms: _134  and  _136
REMARK   56  A    between atoms: _136  and  _137
REMARK   57  A    between atoms: _136  and  _139
REMARK   58  A    between atoms: _139  and  _140
REMARK   59  A    between atoms: _142  and  _144
REMARK   60  A    between atoms: _144  and  _145
REMARK   61  A    between atoms: _148  and  _150
REMARK   62  A    between atoms: _150  and  _151
REMARK   63  A    between atoms: _154  and  _156
REMARK   64  A    between atoms: _156  and  _157
REMARK   65  A    between atoms: _159  and  _161
REMARK   66  A    between atoms: _161  and  _162
REMARK   67  A    between atoms: _161  and  _164
REMARK   68  A    between atoms: _164  and  _165
REMARK   69  A    between atoms: _168  and  _170
REMARK   70  A    between atoms: _170  and  _171
REMARK   71  A    between atoms: _173  and  _175
REMARK   72  A    between atoms: _175  and  _176
REMARK   73  A    between atoms: _175  and  _178
REMARK   74  A    between atoms: _178  and  _179
REMARK   75  A    between atoms: _184  and  _186
REMARK   76  A    between atoms: _186  and  _187
REMARK   77  A    between atoms: _190  and  _192
REMARK   78  A    between atoms: _192  and  _193
REMARK   79  A    between atoms: _192  and  _195
REMARK   80  A    between atoms: _195  and  _196
REMARK   81  A    between atoms: _196  and  _197
REMARK   82  A    between atoms: _202  and  _204
REMARK   83  A    between atoms: _204  and  _205
REMARK   84  A    between atoms: _204  and  _207
REMARK   85  A    between atoms: _207  and  _208
REMARK   86  A    between atoms: _211  and  _213
REMARK   87  A    between atoms: _213  and  _214
REMARK   88  A    between atoms: _213  and  _216
REMARK   89  A    between atoms: _216  and  _217
REMARK   90  A    between atoms: _220  and  _222
REMARK   91  A    between atoms: _222  and  _223
REMARK   92  A    between atoms: _225  and  _227
REMARK   93  A    between atoms: _227  and  _228
REMARK   94  A    between atoms: _231  and  _233
REMARK   95  A    between atoms: _233  and  _234
REMARK   96  A    between atoms: _233  and  _236
REMARK   97  A    between atoms: _236  and  _237
REMARK   98  A    between atoms: _239  and  _241
REMARK   99  A    between atoms: _241  and  _242
REMARK  100  A    between atoms: _241  and  _244
REMARK  101  A    between atoms: _244  and  _245
REMARK  102  A    between atoms: _250  and  _252
REMARK  103  A    between atoms: _252  and  _253
REMARK  104  A    between atoms: _252  and  _255
REMARK  105  A    between atoms: _255  and  _256
REMARK  106  A    between atoms: _258  and  _260
REMARK  107  A    between atoms: _260  and  _261
REMARK  108  A    between atoms: _264  and  _266
REMARK  109  A    between atoms: _266  and  _267
REMARK  110  A    between atoms: _270  and  _272
REMARK  111  A    between atoms: _272  and  _273
REMARK  112  A    between atoms: _272  and  _275
REMARK  113  A    between atoms: _275  and  _276
REMARK  114  A    between atoms: _276  and  _277
REMARK  115  A    between atoms: _277  and  _278
REMARK  116  A    between atoms: _287  and  _289
REMARK  117  A    between atoms: _289  and  _290
REMARK  118  A    between atoms: _289  and  _292
REMARK  119  A    between atoms: _292  and  _293
REMARK  120  A    between atoms: _298  and  _299
REMARK  121  A    between atoms: _301  and  _303
REMARK  122  A    between atoms: _303  and  _304
REMARK  123  A    between atoms: _303  and  _306
REMARK  124  A    between atoms: _306  and  _307
REMARK  125  A    between atoms: _312  and  _314
REMARK  126  A    between atoms: _314  and  _315
REMARK  127  A    between atoms: _314  and  _317
REMARK  128  A    between atoms: _317  and  _318
REMARK  129  A    between atoms: _318  and  _319
REMARK  130  A    between atoms: _325  and  _326
REMARK  131  A    between atoms: _331  and  _333
REMARK  132  A    between atoms: _333  and  _334
REMARK  133  A    between atoms: _333  and  _336
REMARK  134  A    between atoms: _336  and  _337
REMARK  135  A    between atoms: _342  and  _344
REMARK  136  A    between atoms: _344  and  _345
REMARK  137  A    between atoms: _344  and  _347
REMARK  138  A    between atoms: _347  and  _348
REMARK  139  A    between atoms: _348  and  _349
REMARK  140  A    between atoms: _352  and  _354
REMARK  141  A    between atoms: _354  and  _355
REMARK  142  A    between atoms: _354  and  _357
REMARK  143  A    between atoms: _357  and  _358
REMARK  144  A    between atoms: _360  and  _362
REMARK  145  A    between atoms: _362  and  _363
REMARK  146  A    between atoms: _362  and  _365
REMARK  147  A    between atoms: _365  and  _366
REMARK  148  A    between atoms: _369  and  _371
REMARK  149  A    between atoms: _371  and  _372
REMARK  150  A    between atoms: _371  and  _374
REMARK  151  A    between atoms: _374  and  _375
REMARK  152  A    between atoms: _377  and  _379
REMARK  153  A    between atoms: _379  and  _380
REMARK  154  A    between atoms: _379  and  _382
REMARK  155  A    between atoms: _382  and  _383
REMARK  156  A    between atoms: _386  and  _388
REMARK  157  A    between atoms: _388  and  _389
REMARK  158  A    between atoms: _388  and  _391
REMARK  159  A    between atoms: _391  and  _392
REMARK  160  A    between atoms: _395  and  _397
REMARK  161  A    between atoms: _397  and  _398
REMARK  162  A    between atoms: _397  and  _400
REMARK  163  A    between atoms: _400  and  _401
REMARK  164  A    between atoms: _401  and  _402
REMARK  165  A    between atoms: _407  and  _409
REMARK  166  A    between atoms: _409  and  _410
REMARK  167  A    between atoms: _409  and  _412
REMARK  168  A    between atoms: _412  and  _413
REMARK  169  A    between atoms: _419  and  _421
REMARK  170  A    between atoms: _421  and  _422
REMARK  171  A    between atoms: _421  and  _424
REMARK  172  A    between atoms: _426  and  _428
REMARK  173  A    between atoms: _428  and  _429
REMARK  174  A    between atoms: _432  and  _434
REMARK  175  A    between atoms: _434  and  _435
REMARK  176  A    between atoms: _437  and  _439
REMARK  177  A    between atoms: _439  and  _440
REMARK  178  A    between atoms: _442  and  _444
REMARK  179  A    between atoms: _444  and  _445
REMARK  180  A    between atoms: _444  and  _447
REMARK  181  A    between atoms: _447  and  _448
REMARK  182  A    between atoms: _451  and  _453
REMARK  183  A    between atoms: _453  and  _454
REMARK  184  A    between atoms: _456  and  _458
REMARK  185  A    between atoms: _458  and  _459
REMARK  186  A    between atoms: _458  and  _461
REMARK  187  A    between atoms: _461  and  _462
REMARK  188  A    between atoms: _468  and  _470
REMARK  189  A    between atoms: _470  and  _471
REMARK  190  A    between atoms: _470  and  _473
REMARK  191  A    between atoms: _476  and  _478
REMARK  192  A    between atoms: _478  and  _479
REMARK  193  A    between atoms: _478  and  _481
REMARK  194  A    between atoms: _481  and  _482
REMARK  195  A    between atoms: _485  and  _487
REMARK  196  A    between atoms: _487  and  _488
REMARK  197  A    between atoms: _490  and  _492
REMARK  198  A    between atoms: _492  and  _493
REMARK  199  A    between atoms: _492  and  _495
REMARK  200  A    between atoms: _495  and  _496
REMARK  201  A    between atoms: _496  and  _497
REMARK  202  A    between atoms: _497  and  MG_734
REMARK  203  A    between atoms: _499  and  _501
REMARK  204  A    between atoms: _501  and  _502
REMARK  205  A    between atoms: _504  and  _506
REMARK  206  A    between atoms: _506  and  _507
REMARK  207  A    between atoms: _506  and  _509
REMARK  208  A    between atoms: _509  and  _510
REMARK  209  A    between atoms: _512  and  _514
REMARK  210  A    between atoms: _514  and  _515
REMARK  211  A    between atoms: _518  and  _520
REMARK  212  A    between atoms: _520  and  _521
REMARK  213  A    between atoms: _520  and  _523
REMARK  214  A    between atoms: _523  and  _524
REMARK  215  A    between atoms: _529  and  _531
REMARK  216  A    between atoms: _531  and  _532
REMARK  217  A    between atoms: _531  and  _534
REMARK  218  A    between atoms: _534  and  _535
REMARK  219  A    between atoms: _540  and  _541
REMARK  220  A    between atoms: _543  and  _545
REMARK  221  A    between atoms: _545  and  _546
REMARK  222  A    between atoms: _545  and  _548
REMARK  223  A    between atoms: _548  and  _549
REMARK  224  A    between atoms: _552  and  _554
REMARK  225  A    between atoms: _554  and  _555
REMARK  226  A    between atoms: _554  and  _557
REMARK  227  A    between atoms: _557  and  _558
REMARK  228  A    between atoms: _558  and  _559
REMARK  229  A    between atoms: _561  and  _563
REMARK  230  A    between atoms: _563  and  _564
REMARK  231  A    between atoms: _563  and  _566
REMARK  232  A    between atoms: _566  and  _567
REMARK  233  A    between atoms: _572  and  _574
REMARK  234  A    between atoms: _574  and  _575
REMARK  235  A    between atoms: _574  and  _577
REMARK  236  A    between atoms: _577  and  _578
REMARK  237  A    between atoms: _583  and  _585
REMARK  238  A    between atoms: _585  and  _586
REMARK  239  A    between atoms: _588  and  _590
REMARK  240  A    between atoms: _590  and  _591
REMARK  241  A    between atoms: _590  and  _593
REMARK  242  A    between atoms: _591  and  _592
REMARK  243  A    between atoms: _591  and  _597
REMARK  244  A    between atoms: _592  and  MG_734
REMARK  245  A    between atoms: _593  and  _594
REMARK  246  A    between atoms: _597  and  _599
REMARK  247  A    between atoms: _599  and  _600
REMARK  248  A    between atoms: _599  and  _602
REMARK  249  A    between atoms: _602  and  _603
REMARK  250  A    between atoms: _608  and  _609
REMARK  251  A    between atoms: _611  and  _613
REMARK  252  A    between atoms: _613  and  _614
REMARK  253  A    between atoms: _616  and  _618
REMARK  254  A    between atoms: _618  and  _619
REMARK  255  A    between atoms: _622  and  _624
REMARK  256  A    between atoms: _624  and  _625
REMARK  257  A    between atoms: _624  and  _627
REMARK  258  A    between atoms: _627  and  _628
REMARK  259  A    between atoms: _631  and  _633
REMARK  260  A    between atoms: _633  and  _634
REMARK  261  A    between atoms: _633  and  _636
REMARK  262  A    between atoms: _636  and  _637
REMARK  263  A    between atoms: _637  and  _638
REMARK  264  A    between atoms: _638  and  _639
REMARK  265  A    between atoms: _648  and  _650
REMARK  266  A    between atoms: _650  and  _651
REMARK  267  A    between atoms: _650  and  _653
REMARK  268  A    between atoms: _653  and  _654
REMARK  269  A    between atoms: _664  and  _666
REMARK  270  A    between atoms: _666  and  _667
REMARK  271  A    between atoms: _666  and  _669
REMARK  272  A    between atoms: _669  and  _670
REMARK  273  A    between atoms: _676  and  _678
REMARK  274  A    between atoms: _678  and  _679
REMARK  275  A    between atoms: _681  and  _683
REMARK  276  A    between atoms: _683  and  _684
REMARK  277  A    between atoms: _683  and  _686
REMARK  278  A    between atoms: _686  and  _687
REMARK  279  A    between atoms: _690  and  _692
REMARK  280  A    between atoms: _692  and  _693
REMARK  281  A    between atoms: _692  and  _695
REMARK  282  A    between atoms: _698  and  _700
REMARK  283  A    between atoms: _700  and  _701
REMARK  284  A    between atoms: _700  and  _703
REMARK  285  A    between atoms: _703  and  _704
REMARK  286  A    between atoms: _710  and  _712
REMARK  287  A    between atoms: _712  and  _713
REMARK  288  A    between atoms: _712  and  _715
REMARK  289  A    between atoms: _715  and  _716
REMARK  290  A    between atoms: _719  and  _721
REMARK  291  A    between atoms: _721  and  _722
REMARK  292  A    between atoms: _721  and  _724
REMARK  293  A    between atoms: _728  and  _729
REMARK                            x       y       z     vdW  Elec       q    Type
REMARK                         _______ _______ _______ _____ _____    ______ ____
ROOT
ATOM      1  CA  LEU A   4      73.348  54.811 161.334  0.00  0.00    +0.149 C 
ENDROOT
BRANCH   1   3
ATOM      2  C   GLY A   3      73.570  55.519 159.012  0.00  0.00    +0.243 C 
ATOM      3  N   LEU A   4      72.979  54.715 159.907  0.00  0.00    -0.297 N 
ATOM      4  H   LEU A   4      72.264  54.026 159.598  0.00  0.00    +0.150 HD
ATOM      5  O   GLY A   3      74.397  56.354 159.341  0.00  0.00    -0.273 OA
BRANCH   2   6
ATOM      6  CA  GLY A   3      73.159  55.310 157.587  0.00  0.00    +0.176 C 
BRANCH   6   9
ATOM      7  C   GLY A   2      71.132  56.612 157.337  0.00  0.00    +0.243 C 
ATOM      8  O   GLY A   2      70.497  55.825 158.064  0.00  0.00    -0.273 OA
ATOM      9  N   GLY A   3      72.469  56.497 157.138  0.00  0.00    -0.295 N 
ATOM     10  H   GLY A   3      72.994  57.259 156.665  0.00  0.00    +0.150 HD
BRANCH   7  11
ATOM     11  CA  GLY A   2      70.380  57.784 156.732  0.00  0.00    +0.176 C 
BRANCH  11  13
ATOM     12  C   ALA A   1      71.359  58.067 154.599  0.00  0.00    +0.238 C 
ATOM     13  N   GLY A   2      71.169  58.553 155.825  0.00  0.00    -0.296 N 
ATOM     14  H   GLY A   2      71.582  59.463 156.112  0.00  0.00    +0.150 HD
ATOM     15  O   ALA A   1      70.825  57.030 154.186  0.00  0.00    -0.274 OA
BRANCH  12  16
ATOM     16  CA  ALA A   1      72.224  58.875 153.653  0.00  0.00    +0.145 C 
ATOM     17  CB  ALA A   1      73.251  57.978 152.953  0.00  0.00    +0.028 C 
BRANCH  16  18
ATOM     18  N   ALA A   1      72.908  59.936 154.387  0.00  0.00    -0.238 NA
ATOM     19  H   ALA A   1      73.695  59.698 155.024  0.00  0.00    +0.142 HD
ENDBRANCH  16  18
ENDBRANCH  12  16
ENDBRANCH  11  13
ENDBRANCH   7  11
ENDBRANCH   6   9
ENDBRANCH   2   6
ENDBRANCH   1   3
BRANCH   1  20
ATOM     20  C   LEU A   4      74.774  54.397 161.570  0.00  0.00    +0.241 C 
ATOM     21  N   GLY A   5      75.335  54.922 162.663  0.00  0.00    -0.295 N 
ATOM     22  H   GLY A   5      74.774  55.477 163.341  0.00  0.00    +0.150 HD
ATOM     23  O   LEU A   4      75.362  53.580 160.798  0.00  0.00    -0.273 OA
BRANCH  21  24
ATOM     24  CA  GLY A   5      76.808  54.684 162.882  0.00  0.00    +0.176 C 
BRANCH  24  25
ATOM     25  C   GLY A   5      77.658  55.857 162.460  0.00  0.00    +0.243 C 
ATOM     26  O   GLY A   5      78.909  55.807 162.574  0.00  0.00    -0.273 OA
ATOM     27  N   PHE A   6      77.041  56.941 162.011  0.00  0.00    -0.298 N 
ATOM     28  H   PHE A   6      76.009  56.916 161.887  0.00  0.00    +0.150 HD
BRANCH  27  29
ATOM     29  CA  PHE A   6      77.757  58.164 161.686  0.00  0.00    +0.141 C 
BRANCH  29  30
ATOM     30  C   PHE A   6      78.036  59.088 162.895  0.00  0.00    +0.227 C 
ATOM     31  O   PHE A   6      79.164  59.545 163.116  0.00  0.00    -0.286 OA
ENDBRANCH  29  30
BRANCH  29  32
ATOM     32  CB  PHE A   6      76.873  58.966 160.691  0.00  0.00    +0.054 C 
BRANCH  32  33
ATOM     33  CG  PHE A   6      77.357  60.394 160.414  0.00  0.00    -0.020 A 
ATOM     34  CD2 PHE A   6      76.711  61.510 161.022  0.00  0.00    -0.004 A 
ATOM     35  CE2 PHE A   6      77.165  62.816 160.795  0.00  0.00    -0.000 A 
ATOM     36  CZ  PHE A   6      78.288  63.033 159.950  0.00  0.00    -0.000 A 
ATOM     37  CE1 PHE A   6      78.902  61.928 159.343  0.00  0.00    -0.000 A 
ATOM     38  CD1 PHE A   6      78.474  60.627 159.574  0.00  0.00    -0.004 A 
ENDBRANCH  32  33
ENDBRANCH  29  32
ENDBRANCH  27  29
ENDBRANCH  24  25
ENDBRANCH  21  24
ENDBRANCH   1  20
BRANCH   1  39
ATOM     39  CB  LEU A   4      72.361  53.976 162.162  0.00  0.00    +0.029 C 
BRANCH  39  40
ATOM     40  CG  LEU A   4      70.902  54.426 161.896  0.00  0.00    +0.002 C 
ATOM     41  CD2 LEU A   4      69.898  53.519 162.697  0.00  0.00    +0.000 C 
ATOM     42  CD1 LEU A   4      70.567  55.894 162.160  0.00  0.00    +0.000 C 
ENDBRANCH  39  40
ENDBRANCH   1  39
TORSDOF 16
REMARK  Name = ../refined-set-2016/3f6e/3f6e_pocket.pdb
REMARK  293 active torsions:
REMARK  status: ('A' for Active; 'I' for Inactive)
REMARK    1  A    between atoms: _1  and  _3
REMARK    2  A    between atoms: _3  and  _4
REMARK    3  A    between atoms: _3  and  _6
REMARK    4  A    between atoms: _6  and  _7
REMARK    5  A    between atoms: _13  and  _14
REMARK    6  A    between atoms: _19  and  _21
REMARK    7  A    between atoms: _21  and  _22
REMARK    8  A    between atoms: _24  and  _26
REMARK    9  A    between atoms: _26  and  _27
REMARK   10  A    between atoms: _26  and  _29
REMARK   11  A    between atoms: _29  and  _30
REMARK   12  A    between atoms: _32  and  _34
REMARK   13  A    between atoms: _34  and  _35
REMARK   14  A    between atoms: _34  and  _37
REMARK   15  A    between atoms: _37  and  _38
REMARK   16  A    between atoms: _43  and  _45
REMARK   17  A    between atoms: _45  and  _46
REMARK   18  A    between atoms: _45  and  _48
REMARK   19  A    between atoms: _48  and  _49
REMARK   20  A    between atoms: _49  and  _50
REMARK   21  A    between atoms: _53  and  _55
REMARK   22  A    between atoms: _55  and  _56
REMARK   23  A    between atoms: _55  and  _58
REMARK   24  A    between atoms: _58  and  _59
REMARK   25  A    between atoms: _62  and  _64
REMARK   26  A    between atoms: _64  and  _65
REMARK   27  A    between atoms: _64  and  _67
REMARK   28  A    between atoms: _67  and  _68
REMARK   29  A    between atoms: _71  and  _73
REMARK   30  A    between atoms: _73  and  _74
REMARK   31  A    between atoms: _77  and  _79
REMARK   32  A    between atoms: _79  and  _80
REMARK   33  A    between atoms: _79  and  _82
REMARK   34  A    between atoms: _82  and  _83
REMARK   35  A    between atoms: _86  and  _88
REMARK   36  A    between atoms: _88  and  _89
REMARK   37  A    between atoms: _88  and  _91
REMARK   38  A    between atoms: _91  and  _92
REMARK   39  A    between atoms: _92  and  _93
REMARK   40  A    between atoms: _98  and  _100
REMARK   41  A    between atoms: _100  and  _101
REMARK   42  A    between atoms: _100  and  _103
REMARK   43  A    between atoms: _103  and  _104
REMARK   44  A    between atoms: _104  and  _105
REMARK   45  A    between atoms: _108  and  _110
REMARK   46  A    between atoms: _110  and  _111
REMARK   47  A    between atoms: _114  and  _116
REMARK   48  A    between atoms: _116  and  _117
REMARK   49  A    between atoms: _116  and  _119
REMARK   50  A    between atoms: _119  and  _120
REMARK   51  A    between atoms: _123  and  _125
REMARK   52  A    between atoms: _125  and  _126
REMARK   53  A    between atoms: _125  and  _128
REMARK   54  A    between atoms: _128  and  _129
REMARK   55  A    between atoms: _134  and  _136
REMARK   56  A    between atoms: _136  and  _137
REMARK   57  A    between atoms: _136  and  _139
REMARK   58  A    between atoms: _139  and  _140
REMARK   59  A    between atoms: _142  and  _144
REMARK   60  A    between atoms: _144  and  _145
REMARK   61  A    between atoms: _148  and  _150
REMARK   62  A    between atoms: _150  and  _151
REMARK   63  A    between atoms: _154  and  _156
REMARK   64  A    between atoms: _156  and  _157
REMARK   65  A    between atoms: _159  and  _161
REMARK   66  A    between atoms: _161  and  _162
REMARK   67  A    between atoms: _161  and  _164
REMARK   68  A    between atoms: _164  and  _165
REMARK   69  A    between atoms: _168  and  _170
REMARK   70  A    between atoms: _170  and  _171
REMARK   71  A    between atoms: _173  and  _175
REMARK   72  A    between atoms: _175  and  _176
REMARK   73  A    between atoms: _175  and  _178
REMARK   74  A    between atoms: _178  and  _179
REMARK   75  A    between atoms: _184  and  _186
REMARK   76  A    between atoms: _186  and  _187
REMARK   77  A    between atoms: _190  and  _192
REMARK   78  A    between atoms: _192  and  _193
REMARK   79  A    between atoms: _192  and  _195
REMARK   80  A    between atoms: _195  and  _196
REMARK   81  A    between atoms: _196  and  _197
REMARK   82  A    between atoms: _202  and  _204
REMARK   83  A    between atoms: _204  and  _205
REMARK   84  A    between atoms: _204  and  _207
REMARK   85  A    between atoms: _207  and  _208
REMARK   86  A    between atoms: _211  and  _213
REMARK   87  A    between atoms: _213  and  _214
REMARK   88  A    between atoms: _213  and  _216
REMARK   89  A    between atoms: _216  and  _217
REMARK   90  A    between atoms: _220  and  _222
REMARK   91  A    between atoms: _222  and  _223
REMARK   92  A    between atoms: _225  and  _227
REMARK   93  A    between atoms: _227  and  _228
REMARK   94  A    between atoms: _231  and  _233
REMARK   95  A    between atoms: _233  and  _234
REMARK   96  A    between atoms: _233  and  _236
REMARK   97  A    between atoms: _236  and  _237
REMARK   98  A    between atoms: _239  and  _241
REMARK   99  A    between atoms: _241  and  _242
REMARK  100  A    between atoms: _241  and  _244
REMARK  101  A    between atoms: _244  and  _245
REMARK  102  A    between atoms: _250  and  _252
REMARK  103  A    between atoms: _252  and  _253
REMARK  104  A    between atoms: _252  and  _255
REMARK  105  A    between atoms: _255  and  _256
REMARK  106  A    between atoms: _258  and  _260
REMARK  107  A    between atoms: _260  and  _261
REMARK  108  A    between atoms: _264  and  _266
REMARK  109  A    between atoms: _266  and  _267
REMARK  110  A    between atoms: _270  and  _272
REMARK  111  A    between atoms: _272  and  _273
REMARK  112  A    between atoms: _272  and  _275
REMARK  113  A    between atoms: _275  and  _276
REMARK  114  A    between atoms: _276  and  _277
REMARK  115  A    between atoms: _277  and  _278
REMARK  116  A    between atoms: _287  and  _289
REMARK  117  A    between atoms: _289  and  _290
REMARK  118  A    between atoms: _289  and  _292
REMARK  119  A    between atoms: _292  and  _293
REMARK  120  A    between atoms: _298  and  _299
REMARK  121  A    between atoms: _301  and  _303
REMARK  122  A    between atoms: _303  and  _304
REMARK  123  A    between atoms: _303  and  _306
REMARK  124  A    between atoms: _306  and  _307
REMARK  125  A    between atoms: _312  and  _314
REMARK  126  A    between atoms: _314  and  _315
REMARK  127  A    between atoms: _314  and  _317
REMARK  128  A    between atoms: _317  and  _318
REMARK  129  A    between atoms: _318  and  _319
REMARK  130  A    between atoms: _325  and  _326
REMARK  131  A    between atoms: _331  and  _333
REMARK  132  A    between atoms: _333  and  _334
REMARK  133  A    between atoms: _333  and  _336
REMARK  134  A    between atoms: _336  and  _337
REMARK  135  A    between atoms: _342  and  _344
REMARK  136  A    between atoms: _344  and  _345
REMARK  137  A    between atoms: _344  and  _347
REMARK  138  A    between atoms: _347  and  _348
REMARK  139  A    between atoms: _348  and  _349
REMARK  140  A    between atoms: _352  and  _354
REMARK  141  A    between atoms: _354  and  _355
REMARK  142  A    between atoms: _354  and  _357
REMARK  143  A    between atoms: _357  and  _358
REMARK  144  A    between atoms: _360  and  _362
REMARK  145  A    between atoms: _362  and  _363
REMARK  146  A    between atoms: _362  and  _365
REMARK  147  A    between atoms: _365  and  _366
REMARK  148  A    between atoms: _369  and  _371
REMARK  149  A    between atoms: _371  and  _372
REMARK  150  A    between atoms: _371  and  _374
REMARK  151  A    between atoms: _374  and  _375
REMARK  152  A    between atoms: _377  and  _379
REMARK  153  A    between atoms: _379  and  _380
REMARK  154  A    between atoms: _379  and  _382
REMARK  155  A    between atoms: _382  and  _383
REMARK  156  A    between atoms: _386  and  _388
REMARK  157  A    between atoms: _388  and  _389
REMARK  158  A    between atoms: _388  and  _391
REMARK  159  A    between atoms: _391  and  _392
REMARK  160  A    between atoms: _395  and  _397
REMARK  161  A    between atoms: _397  and  _398
REMARK  162  A    between atoms: _397  and  _400
REMARK  163  A    between atoms: _400  and  _401
REMARK  164  A    between atoms: _401  and  _402
REMARK  165  A    between atoms: _407  and  _409
REMARK  166  A    between atoms: _409  and  _410
REMARK  167  A    between atoms: _409  and  _412
REMARK  168  A    between atoms: _412  and  _413
REMARK  169  A    between atoms: _419  and  _421
REMARK  170  A    between atoms: _421  and  _422
REMARK  171  A    between atoms: _421  and  _424
REMARK  172  A    between atoms: _426  and  _428
REMARK  173  A    between atoms: _428  and  _429
REMARK  174  A    between atoms: _432  and  _434
REMARK  175  A    between atoms: _434  and  _435
REMARK  176  A    between atoms: _437  and  _439
REMARK  177  A    between atoms: _439  and  _440
REMARK  178  A    between atoms: _442  and  _444
REMARK  179  A    between atoms: _444  and  _445
REMARK  180  A    between atoms: _444  and  _447
REMARK  181  A    between atoms: _447  and  _448
REMARK  182  A    between atoms: _451  and  _453
REMARK  183  A    between atoms: _453  and  _454
REMARK  184  A    between atoms: _456  and  _458
REMARK  185  A    between atoms: _458  and  _459
REMARK  186  A    between atoms: _458  and  _461
REMARK  187  A    between atoms: _461  and  _462
REMARK  188  A    between atoms: _468  and  _470
REMARK  189  A    between atoms: _470  and  _471
REMARK  190  A    between atoms: _470  and  _473
REMARK  191  A    between atoms: _476  and  _478
REMARK  192  A    between atoms: _478  and  _479
REMARK  193  A    between atoms: _478  and  _481
REMARK  194  A    between atoms: _481  and  _482
REMARK  195  A    between atoms: _485  and  _487
REMARK  196  A    between atoms: _487  and  _488
REMARK  197  A    between atoms: _490  and  _492
REMARK  198  A    between atoms: _492  and  _493
REMARK  199  A    between atoms: _492  and  _495
REMARK  200  A    between atoms: _495  and  _496
REMARK  201  A    between atoms: _496  and  _497
REMARK  202  A    between atoms: _497  and  MG_734
REMARK  203  A    between atoms: _499  and  _501
REMARK  204  A    between atoms: _501  and  _502
REMARK  205  A    between atoms: _504  and  _506
REMARK  206  A    between atoms: _506  and  _507
REMARK  207  A    between atoms: _506  and  _509
REMARK  208  A    between atoms: _509  and  _510
REMARK  209  A    between atoms: _512  and  _514
REMARK  210  A    between atoms: _514  and  _515
REMARK  211  A    between atoms: _518  and  _520
REMARK  212  A    between atoms: _520  and  _521
REMARK  213  A    between atoms: _520  and  _523
REMARK  214  A    between atoms: _523  and  _524
REMARK  215  A    between atoms: _529  and  _531
REMARK  216  A    between atoms: _531  and  _532
REMARK  217  A    between atoms: _531  and  _534
REMARK  218  A    between atoms: _534  and  _535
REMARK  219  A    between atoms: _540  and  _541
REMARK  220  A    between atoms: _543  and  _545
REMARK  221  A    between atoms: _545  and  _546
REMARK  222  A    between atoms: _545  and  _548
REMARK  223  A    between atoms: _548  and  _549
REMARK  224  A    between atoms: _552  and  _554
REMARK  225  A    between atoms: _554  and  _555
REMARK  226  A    between atoms: _554  and  _557
REMARK  227  A    between atoms: _557  and  _558
REMARK  228  A    between atoms: _558  and  _559
REMARK  229  A    between atoms: _561  and  _563
REMARK  230  A    between atoms: _563  and  _564
REMARK  231  A    between atoms: _563  and  _566
REMARK  232  A    between atoms: _566  and  _567
REMARK  233  A    between atoms: _572  and  _574
REMARK  234  A    between atoms: _574  and  _575
REMARK  235  A    between atoms: _574  and  _577
REMARK  236  A    between atoms: _577  and  _578
REMARK  237  A    between atoms: _583  and  _585
REMARK  238  A    between atoms: _585  and  _586
REMARK  239  A    between atoms: _588  and  _590
REMARK  240  A    between atoms: _590  and  _591
REMARK  241  A    between atoms: _590  and  _593
REMARK  242  A    between atoms: _591  and  _592
REMARK  243  A    between atoms: _591  and  _597
REMARK  244  A    between atoms: _592  and  MG_734
REMARK  245  A    between atoms: _593  and  _594
REMARK  246  A    between atoms: _597  and  _599
REMARK  247  A    between atoms: _599  and  _600
REMARK  248  A    between atoms: _599  and  _602
REMARK  249  A    between atoms: _602  and  _603
REMARK  250  A    between atoms: _608  and  _609
REMARK  251  A    between atoms: _611  and  _613
REMARK  252  A    between atoms: _613  and  _614
REMARK  253  A    between atoms: _616  and  _618
REMARK  254  A    between atoms: _618  and  _619
REMARK  255  A    between atoms: _622  and  _624
REMARK  256  A    between atoms: _624  and  _625
REMARK  257  A    between atoms: _624  and  _627
REMARK  258  A    between atoms: _627  and  _628
REMARK  259  A    between atoms: _631  and  _633
REMARK  260  A    between atoms: _633  and  _634
REMARK  261  A    between atoms: _633  and  _636
REMARK  262  A    between atoms: _636  and  _637
REMARK  263  A    between atoms: _637  and  _638
REMARK  264  A    between atoms: _638  and  _639
REMARK  265  A    between atoms: _648  and  _650
REMARK  266  A    between atoms: _650  and  _651
REMARK  267  A    between atoms: _650  and  _653
REMARK  268  A    between atoms: _653  and  _654
REMARK  269  A    between atoms: _664  and  _666
REMARK  270  A    between atoms: _666  and  _667
REMARK  271  A    between atoms: _666  and  _669
REMARK  272  A    between atoms: _669  and  _670
REMARK  273  A    between atoms: _676  and  _678
REMARK  274  A    between atoms: _678  and  _679
REMARK  275  A    between atoms: _681  and  _683
REMARK  276  A    between atoms: _683  and  _684
REMARK  277  A    between atoms: _683  and  _686
REMARK  278  A    between atoms: _686  and  _687
REMARK  279  A    between atoms: _690  and  _692
REMARK  280  A    between atoms: _692  and  _693
REMARK  281  A    between atoms: _692  and  _695
REMARK  282  A    between atoms: _698  and  _700
REMARK  283  A    between atoms: _700  and  _701
REMARK  284  A    between atoms: _700  and  _703
REMARK  285  A    between atoms: _703  and  _704
REMARK  286  A    between atoms: _710  and  _712
REMARK  287  A    between atoms: _712  and  _713
REMARK  288  A    between atoms: _712  and  _715
REMARK  289  A    between atoms: _715  and  _716
REMARK  290  A    between atoms: _719  and  _721
REMARK  291  A    between atoms: _721  and  _722
REMARK  292  A    between atoms: _721  and  _724
REMARK  293  A    between atoms: _728  and  _729
REMARK                            x       y       z     vdW  Elec       q    Type
REMARK                         _______ _______ _______ _____ _____    ______ ____
ROOT
ATOM      1  C   UNK A   4      64.050  51.036 169.735  0.00  0.00    +0.000 C 
ENDROOT
BRANCH   1   2
ATOM      2  N   TYR A   1      63.837  50.508 168.536  0.00  0.00    +0.000 NA
ATOM      3  H   TYR A   1      63.494  49.529 168.467  0.00  0.00    +0.000 HD
BRANCH   2   4
ATOM      4  CA  TYR A   1      64.072  51.268 167.311  0.00  0.00    +0.000 C 
BRANCH   4   5
ATOM      5  C   TYR A   1      62.806  52.109 167.064  0.00  0.00    +0.000 C 
ATOM      6  N   GLY A   2      62.704  53.242 167.727  0.00  0.00    +0.000 N 
ATOM      7  H   GLY A   2      63.533  53.614 168.233  0.00  0.00    +0.000 HD
ATOM      8  O   TYR A   1      61.902  51.681 166.341  0.00  0.00    +0.000 OA
BRANCH   6   9
ATOM      9  CA  GLY A   2      61.451  53.984 167.764  0.00  0.00    +0.000 C 
BRANCH   9  10
ATOM     10  C   GLY A   2      60.964  54.451 166.418  0.00  0.00    +0.000 C 
ATOM     11  O   GLY A   2      59.723  54.388 166.146  0.00  0.00    +0.000 OA
ATOM     12  N   ALA A   3      61.869  54.902 165.558  0.00  0.00    +0.000 N 
ATOM     13  H   ALA A   3      62.881  54.898 165.796  0.00  0.00    +0.000 HD
BRANCH  12  14
ATOM     14  CA  ALA A   3      61.403  55.404 164.268  0.00  0.00    +0.000 C 
ATOM     15  CB  ALA A   3      62.535  56.086 163.491  0.00  0.00    +0.000 C 
BRANCH  14  16
ATOM     16  C   ALA A   3      60.803  54.256 163.435  0.00  0.00    +0.000 C 
ATOM     17  N   UNK A   4      61.330  53.047 163.601  0.00  0.00    +0.000 N 
ATOM     18  H   UNK A   4      62.096  52.913 164.291  0.00  0.00    +0.000 HD
ATOM     19  O   ALA A   3      59.895  54.469 162.624  0.00  0.00    +0.000 OA
BRANCH  17  20
ATOM     20  C   UNK A   4      60.845  51.894 162.822  0.00  0.00    +0.000 C 
BRANCH  20  21
ATOM     21  C   UNK A   4      59.488  51.534 163.349  0.00  0.00    +0.000 C 
ATOM     22  N   GLY A   5      59.265  51.637 164.662  0.00  0.00    +0.000 N 
ATOM     23  H   GLY A   5      60.046  51.834 165.320  0.00  0.00    +0.000 HD
ATOM     24  O   UNK A   4      58.601  51.134 162.569  0.00  0.00    +0.000 OA
BRANCH  22  25
ATOM     25  CA  GLY A   5      57.890  51.466 165.158  0.00  0.00    +0.000 C 
BRANCH  25  26
ATOM     26  C   GLY A   5      56.936  52.480 164.594  0.00  0.00    +0.000 C 
ATOM     27  N   SER A   6      57.399  53.712 164.452  0.00  0.00    +0.000 N 
ATOM     28  H   SER A   6      58.334  53.967 164.830  0.00  0.00    +0.000 HD
ATOM     29  O   GLY A   5      55.765  52.143 164.246  0.00  0.00    +0.000 OA
BRANCH  27  30
ATOM     30  CA  SER A   6      56.588  54.712 163.761  0.00  0.00    +0.000 C 
BRANCH  30  31
ATOM     31  C   SER A   6      56.310  54.405 162.260  0.00  0.00    +0.000 C 
ATOM     32  O   SER A   6      55.145  54.516 161.794  0.00  0.00    +0.000 OA
ATOM     33  N   ALA A   7      57.336  54.138 161.456  0.00  0.00    +0.000 N 
ATOM     34  H   ALA A   7      58.308  54.198 161.821  0.00  0.00    +0.000 HD
BRANCH  33  35
ATOM     35  CA  ALA A   7      57.105  53.759 160.055  0.00  0.00    +0.000 C 
BRANCH  35  36
ATOM     36  C   ALA A   7      56.168  52.545 159.984  0.00  0.00    +0.000 C 
ATOM     37  O   ALA A   7      55.374  52.481 159.045  0.00  0.00    +0.000 OA
ENDBRANCH  35  36
BRANCH  35  38
ATOM     38  CB  ALA A   7      58.414  53.500 159.285  0.00  0.00    +0.000 C 
BRANCH  38  39
ATOM     39  CG  ALA A   7      59.314  54.735 159.141  0.00  0.00    +0.000 A 
ATOM     40  CD2 ALA A   7      60.661  54.676 159.516  0.00  0.00    +0.000 A 
ATOM     41  CE2 ALA A   7      61.495  55.764 159.350  0.00  0.00    +0.000 A 
ATOM     42  CZ  ALA A   7      61.008  56.961 158.816  0.00  0.00    +0.000 A 
ATOM     43  CE1 ALA A   7      59.681  57.051 158.413  0.00  0.00    +0.000 A 
ATOM     44  CD1 ALA A   7      58.830  55.924 158.568  0.00  0.00    +0.000 A 
ENDBRANCH  38  39
ENDBRANCH  35  38
ENDBRANCH  33  35
ENDBRANCH  30  31
BRANCH  30  45
ATOM     45  CB  SER A   6      57.219  56.087 163.955  0.00  0.00    +0.000 C 
BRANCH  45  46
ATOM     46  CG  SER A   6      56.269  57.151 163.582  0.00  0.00    +0.000 A 
ATOM     47  CD1 SER A   6      55.297  57.721 164.384  0.00  0.00    +0.000 A 
ATOM     48  NE1 SER A   6      54.592  58.657 163.663  0.00  0.00    +0.000 N 
ATOM     49  HE1 SER A   6      53.803  59.231 164.023  0.00  0.00    +0.000 HD
ATOM     50  CE2 SER A   6      55.103  58.708 162.388  0.00  0.00    +0.000 A 
ATOM     51  CZ2 SER A   6      54.726  59.495 161.307  0.00  0.00    +0.000 A 
ATOM     52  CH2 SER A   6      55.413  59.326 160.127  0.00  0.00    +0.000 A 
ATOM     53  CZ3 SER A   6      56.470  58.386 160.018  0.00  0.00    +0.000 A 
ATOM     54  CE3 SER A   6      56.845  57.605 161.101  0.00  0.00    +0.000 A 
ATOM     55  CD2 SER A   6      56.161  57.764 162.310  0.00  0.00    +0.000 A 
ENDBRANCH  45  46
ENDBRANCH  30  45
ENDBRANCH  27  30
ENDBRANCH  25  26
BRANCH  25  56
ATOM     56  CB  GLY A   5      57.868  51.567 166.657  0.00  0.00    +0.000 C 
BRANCH  56  57
ATOM     57  CG  GLY A   5      58.280  50.328 167.286  0.00  0.00    +0.000 C 
BRANCH  57  58
ATOM     58  CD  GLY A   5      58.012  50.382 168.747  0.00  0.00    +0.000 C 
BRANCH  58  59
ATOM     59  NE  GLY A   5      58.478  49.140 169.334  0.00  0.00    +0.330 N 
ATOM     60  HE  GLY A   5      59.448  49.103 169.707  0.00  0.00    +0.000 HD
ATOM     61  CZ  GLY A   5      57.731  48.053 169.419  0.00  0.00    +0.000 C 
ATOM     62  NH2 GLY A   5      58.216  46.949 169.982  0.00  0.00    +0.330 N 
ATOM     63 HH21 GLY A   5      59.186  46.940 170.357  0.00  0.00    +0.000 HD
ATOM     64 HH22 GLY A   5      57.625  46.096 170.047  0.00  0.00    +0.000 HD
ATOM     65  NH1 GLY A   5      56.463  48.103 168.993  0.00  0.00    +0.330 N 
ATOM     66 HH11 GLY A   5      55.861  47.257 169.052  0.00  0.00    +0.000 HD
ATOM     67 HH12 GLY A   5      56.080  48.988 168.603  0.00  0.00    +0.000 HD
ENDBRANCH  58  59
ENDBRANCH  57  58
ENDBRANCH  56  57
ENDBRANCH  25  56
ENDBRANCH  22  25
ENDBRANCH  20  21
BRANCH  20  68
ATOM     68  C   UNK A   4      61.836  50.701 162.840  0.00  0.00    +0.000 C 
BRANCH  68  69
ATOM     69  C   UNK A   4      63.232  50.889 162.236  0.00  0.00    +0.000 C 
ATOM     70  C   UNK A   4      63.924  49.589 162.271  0.00  0.00    +0.000 C 
ATOM     71  C   UNK A   4      63.067  51.421 160.819  0.00  0.00    +0.000 C 
ENDBRANCH  68  69
ENDBRANCH  20  68
ENDBRANCH  17  20
ENDBRANCH  14  16
ENDBRANCH  12  14
ENDBRANCH   9  10
ENDBRANCH   6   9
ENDBRANCH   4   5
BRANCH   4  72
ATOM     72  CB  TYR A   1      64.354  50.217 166.211  0.00  0.00    +0.000 C 
BRANCH  72  73
ATOM     73  CG  TYR A   1      65.695  49.509 166.191  0.00  0.00    +0.000 A 
ATOM     74  CD2 TYR A   1      66.833  50.169 166.577  0.00  0.00    +0.000 A 
ATOM     75  CE2 TYR A   1      68.086  49.492 166.449  0.00  0.00    +0.000 A 
ATOM     76  CZ  TYR A   1      68.077  48.182 166.023  0.00  0.00    +0.000 A 
ATOM     77  CE1 TYR A   1      66.976  47.517 165.704  0.00  0.00    +0.000 A 
ATOM     78  CD1 TYR A   1      65.772  48.185 165.765  0.00  0.00    +0.000 A 
BRANCH  76  79
ATOM     79  OH  TYR A   1      69.296  47.467 165.923  0.00  0.00    +0.000 OA
ATOM     80  HH  TYR A   1      70.046  48.058 166.183  0.00  0.00    +0.000 HD
ENDBRANCH  76  79
ENDBRANCH  72  73
ENDBRANCH   4  72
ENDBRANCH   2   4
ENDBRANCH   1   2
BRANCH   1  81
ATOM     81  C   UNK A   4      63.503  50.247 170.931  0.00  0.00    +0.000 C 
BRANCH  81  82
ATOM     82  N   UNK A   4      64.111  50.708 172.179  0.00  0.00    +0.000 N 
ATOM     83  C   UNK A   4      64.287  49.843 173.186  0.00  0.00    +0.000 C 
ATOM     84  O   UNK A   4      64.098  48.609 173.089  0.00  0.00    +0.000 OA
ATOM     85  H   UNK A   4      64.404  51.700 172.283  0.00  0.00    +0.000 HD
BRANCH  83  86
ATOM     86  C   UNK A   4      64.673  50.450 174.529  0.00  0.00    +0.000 C 
BRANCH  86  87
ATOM     87  N   UNK A   4      64.736  51.896 174.626  0.00  0.00    +0.000 N 
ATOM     88  C   UNK A   4      63.669  52.653 174.796  0.00  0.00    +0.000 C 
ATOM     89  O   UNK A   4      62.550  52.192 174.746  0.00  0.00    +0.000 OA
ATOM     90  H   UNK A   4      65.666  52.357 174.558  0.00  0.00    +0.000 HD
BRANCH  88  91
ATOM     91  C   UNK A   4      63.881  54.125 175.106  0.00  0.00    +0.000 C 
BRANCH  91  92
ATOM     92  N   UNK A   4      65.358  54.492 175.006  0.00  0.00    +0.000 N 
ATOM     93  C   UNK A   4      66.046  54.941 176.039  0.00  0.00    +0.000 C 
ATOM     94  O   UNK A   4      65.535  55.107 177.162  0.00  0.00    +0.000 OA
ATOM     95  H   UNK A   4      65.840  54.385 174.091  0.00  0.00    +0.000 HD
BRANCH  93  96
ATOM     96  C   UNK A   4      67.549  55.200 175.833  0.00  0.00    +0.000 C 
BRANCH  96  97
ATOM     97  N   UNK A   4      67.948  56.588 175.666  0.00  0.00    +0.000 N 
ATOM     98  H   UNK A   4      68.118  57.186 176.499  0.00  0.00    +0.000 HD
ATOM     99  C   UNK A   4      68.092  57.082 174.460  0.00  0.00    +0.000 C 
ATOM    100  O   UNK A   4      67.893  56.386 173.456  0.00  0.00    +0.000 OA
BRANCH  99 101
ATOM    101  C   UNK A   4      68.540  58.531 174.358  0.00  0.00    +0.000 C 
BRANCH 101 102
ATOM    102  N   UNK A   4      69.991  58.478 174.085  0.00  0.00    +0.000 N 
ATOM    103  C   UNK A   4      70.879  58.428 175.074  0.00  0.00    +0.000 C 
ATOM    104  O   UNK A   4      70.584  58.401 176.290  0.00  0.00    +0.000 OA
ATOM    105  H   UNK A   4      70.325  58.480 173.100  0.00  0.00    +0.000 HD
BRANCH 103 106
ATOM    106  C   UNK A   4      72.350  58.423 174.637  0.00  0.00    +0.000 C 
BRANCH 106 107
ATOM    107  C   UNK A   4      72.997  57.064 175.073  0.00  0.00    +0.000 C 
ATOM    108  C   UNK A   4      72.202  55.878 174.397  0.00  0.00    +0.000 C 
BRANCH 107 109
ATOM    109  C   UNK A   4      74.534  57.011 174.857  0.00  0.00    +0.000 C 
ATOM    110  C   UNK A   4      75.102  57.435 173.391  0.00  0.00    +0.000 C 
ENDBRANCH 107 109
ENDBRANCH 106 107
BRANCH 106 111
ATOM    111  N   UNK A   4      72.996  59.568 175.201  0.00  0.00    +0.000 NA
ATOM    112  H   UNK A   4      73.346  59.541 176.180  0.00  0.00    +0.000 HD
ENDBRANCH 106 111
ENDBRANCH 103 106
ENDBRANCH 101 102
BRANCH 101 113
ATOM    113  C   UNK A   4      67.861  59.241 173.171  0.00  0.00    +0.000 C 
BRANCH 113 114
ATOM    114  C   UNK A   4      68.452  60.644 172.949  0.00  0.00    +0.000 C 
BRANCH 114 115
ATOM    115  S   UNK A   4      67.838  61.861 174.230  0.00  0.00    +0.000 S 
ATOM    116  C   UNK A   4      66.206  62.285 173.581  0.00  0.00    +0.000 C 
ENDBRANCH 114 115
ENDBRANCH 113 114
ENDBRANCH 101 113
ENDBRANCH  99 101
ENDBRANCH  96  97
BRANCH  96 117
ATOM    117  C   UNK A   4      68.402  54.540 176.945  0.00  0.00    +0.000 C 
BRANCH 117 118
ATOM    118  C   UNK A   4      68.217  53.034 177.003  0.00  0.00    +0.000 C 
ATOM    119  N   UNK A   4      68.964  52.359 177.888  0.00  0.00    +0.000 N 
ATOM    120  H   UNK A   4      69.643  52.867 178.490  0.00  0.00    +0.000 HD
ATOM    121  H   UNK A   4      68.865  51.327 177.973  0.00  0.00    +0.000 HD
ATOM    122  O   UNK A   4      67.381  52.478 176.249  0.00  0.00    +0.000 OA
ENDBRANCH 117 118
ENDBRANCH  96 117
ENDBRANCH  93  96
ENDBRANCH  91  92
BRANCH  91 123
ATOM    123  C   UNK A   4      62.984  55.032 174.229  0.00  0.00    +0.000 C 
BRANCH 123 124
ATOM    124  C   UNK A   4      63.271  54.929 172.757  0.00  0.00    +0.000 C 
ATOM    125  O   UNK A   4      64.003  53.984 172.328  0.00  0.00    +0.000 OA
ATOM    126  N   UNK A   4      62.675  55.859 171.925  0.00  0.00    +0.000 N 
ATOM    127  H   UNK A   4      62.084  56.614 172.328  0.00  0.00    +0.000 HD
ATOM    128  H   UNK A   4      62.818  55.803 170.896  0.00  0.00    +0.000 HD
ENDBRANCH 123 124
ENDBRANCH  91 123
ENDBRANCH  88  91
ENDBRANCH  86  87
ENDBRANCH  83  86
ENDBRANCH  81  82
BRANCH  81 129
ATOM    129  C   UNK A   4      61.906  50.348 171.021  0.00  0.00    +0.000 C 
ATOM    130  C   UNK A   4      61.429  51.793 171.110  0.00  0.00    +0.000 C 
BRANCH 129 131
ATOM    131  O   UNK A   4      61.307  49.695 169.897  0.00  0.00    +0.000 OA
ATOM    132  H   UNK A   4      61.573  48.741 169.891  0.00  0.00    +0.000 HD
ENDBRANCH 129 131
ENDBRANCH  81 129
ENDBRANCH   1  81
BRANCH   1 133
ATOM    133  O   UNK A   4      64.557  52.134 169.912  0.00  0.00    +0.000 OA
BRANCH 133 134
ATOM    134 MG   UNK A   4      65.629  54.025 170.618  0.00  0.00    +0.000 Mg
BRANCH 134 135
ATOM    135  O   UNK A   4      67.190  53.513 172.209  0.00  0.00    +0.000 OA
BRANCH 135 136
ATOM    136  C   UNK A   4      67.856  52.703 172.865  0.00  0.00    +0.000 C 
ATOM    137  O   UNK A   4      67.341  51.653 173.354  0.00  0.00    +0.000 OA
BRANCH 136 138
ATOM    138  C   UNK A   4      69.360  52.902 173.189  0.00  0.00    +0.000 C 
BRANCH 138 139
ATOM    139  C   UNK A   4      70.150  53.518 172.038  0.00  0.00    +0.000 C 
BRANCH 139 140
ATOM    140  C   UNK A   4      70.360  52.528 170.924  0.00  0.00    +0.000 C 
ATOM    141  O   UNK A   4      71.278  51.723 170.975  0.00  0.00    +0.000 OA
ATOM    142  N   GLY A   5      69.525  52.542 169.906  0.00  0.00    +0.000 N 
ATOM    143  H   GLY A   5      68.705  53.181 169.923  0.00  0.00    +0.000 HD
BRANCH 142 144
ATOM    144  CA  GLY A   5      69.737  51.671 168.755  0.00  0.00    +0.000 C 
BRANCH 144 145
ATOM    145  C   GLY A   5      70.973  52.101 167.936  0.00  0.00    +0.000 C 
ATOM    146  O   GLY A   5      71.912  51.322 167.741  0.00  0.00    +0.000 OA
ATOM    147  N   SER A   6      70.978  53.365 167.473  0.00  0.00    +0.000 N 
ATOM    148  H   SER A   6      70.161  53.976 167.673  0.00  0.00    +0.000 HD
BRANCH 147 149
ATOM    149  CA  SER A   6      72.103  53.912 166.692  0.00  0.00    +0.000 C 
BRANCH 149 150
ATOM    150  C   SER A   6      73.408  53.814 167.398  0.00  0.00    +0.000 C 
ATOM    151  N   ALA A   7      73.409  53.909 168.727  0.00  0.00    +0.000 N 
ATOM    152  H   ALA A   7      72.515  53.911 169.259  0.00  0.00    +0.000 HD
ATOM    153  O   SER A   6      74.504  53.671 166.740  0.00  0.00    +0.000 OA
BRANCH 151 154
ATOM    154  CA  ALA A   7      74.696  54.011 169.427  0.00  0.00    +0.000 C 
ATOM    155  CB  ALA A   7      74.435  54.143 170.938  0.00  0.00    +0.000 C 
BRANCH 154 156
ATOM    156  C   ALA A   7      75.589  52.756 169.185  0.00  0.00    +0.000 C 
ATOM    157  O   ALA A   7      76.881  52.831 169.261  0.00  0.00    +0.000 OA
ATOM    158  N   ASN A   8      74.978  51.599 168.879  0.00  0.00    +0.000 N 
ATOM    159  H   ASN A   8      73.946  51.584 168.752  0.00  0.00    +0.000 HD
BRANCH 158 160
ATOM    160  CA  ASN A   8      75.739  50.361 168.721  0.00  0.00    +0.000 C 
BRANCH 160 161
ATOM    161  C   ASN A   8      76.519  50.237 167.448  0.00  0.00    +0.000 C 
ATOM    162  O   ASN A   8      77.527  49.532 167.425  0.00  0.00    +0.000 OA
ATOM    163  N   TYR A   9      76.040  50.852 166.358  0.00  0.00    +0.000 N 
ATOM    164  H   TYR A   9      75.214  51.480 166.432  0.00  0.00    +0.000 HD
BRANCH 163 165
ATOM    165  CA  TYR A   9      76.683  50.636 165.068  0.00  0.00    +0.000 C 
BRANCH 165 166
ATOM    166  C   TYR A   9      78.206  50.955 165.056  0.00  0.00    +0.000 C 
ATOM    167  O   TYR A   9      78.962  50.165 164.459  0.00  0.00    +0.000 OA
ENDBRANCH 165 166
BRANCH 165 168
ATOM    168  CB  TYR A   9      75.915  51.419 163.969  0.00  0.00    +0.000 C 
BRANCH 168 169
ATOM    169  CG  TYR A   9      74.526  50.933 163.693  0.00  0.00    +0.000 A 
ATOM    170  CD2 TYR A   9      73.525  51.350 164.468  0.00  0.00    +0.000 A 
ATOM    171  CE2 TYR A   9      72.175  50.856 164.228  0.00  0.00    +0.000 A 
ATOM    172  CZ  TYR A   9      71.967  49.946 163.226  0.00  0.00    +0.000 A 
ATOM    173  CE1 TYR A   9      72.970  49.538 162.428  0.00  0.00    +0.000 A 
ATOM    174  CD1 TYR A   9      74.263  50.009 162.667  0.00  0.00    +0.000 A 
BRANCH 172 175
ATOM    175  OH  TYR A   9      70.625  49.523 163.036  0.00  0.00    +0.000 OA
ATOM    176  HH  TYR A   9      70.577  48.537 163.112  0.00  0.00    +0.000 HD
ENDBRANCH 172 175
ENDBRANCH 168 169
ENDBRANCH 165 168
ENDBRANCH 163 165
ENDBRANCH 160 161
BRANCH 160 177
ATOM    177  CB  ASN A   8      74.801  49.165 168.845  0.00  0.00    +0.000 C 
BRANCH 177 178
ATOM    178  CG  ASN A   8      74.070  49.221 170.146  0.00  0.00    +0.000 C 
ATOM    179  OD1 ASN A   8      74.668  49.138 171.223  0.00  0.00    +0.000 OA
ATOM    180  ND2 ASN A   8      72.726  49.462 170.065  0.00  0.00    +0.000 N 
ATOM    181 HD21 ASN A   8      72.166  49.583 170.933  0.00  0.00    +0.000 HD
ATOM    182 HD22 ASN A   8      72.264  49.524 169.135  0.00  0.00    +0.000 HD
ENDBRANCH 177 178
ENDBRANCH 160 177
ENDBRANCH 158 160
ENDBRANCH 154 156
ENDBRANCH 151 154
ENDBRANCH 149 150
BRANCH 149 183
ATOM    183  CB  SER A   6      71.808  55.370 166.372  0.00  0.00    +0.000 C 
BRANCH 183 184
ATOM    184  OG  SER A   6      70.656  55.416 165.534  0.00  0.00    +0.000 OA
ATOM    185  H   SER A   6      69.888  55.008 166.008  0.00  0.00    +0.000 HD
ENDBRANCH 183 184
ENDBRANCH 149 183
ENDBRANCH 147 149
ENDBRANCH 144 145
ENDBRANCH 142 144
ENDBRANCH 139 140
BRANCH 139 187
ATOM    186  C   ALA A   3      70.173  55.528 170.657  0.00  0.00    +0.000 C 
ATOM    187  N   UNK A   4      69.502  54.759 171.534  0.00  0.00    +0.000 N 
ATOM    188  H   UNK A   4      68.549  55.027 171.853  0.00  0.00    +0.000 HD
ATOM    189  O   ALA A   3      71.327  55.242 170.212  0.00  0.00    +0.000 OA
BRANCH 186 190
ATOM    190  CA  ALA A   3      69.441  56.799 170.200  0.00  0.00    +0.000 C 
BRANCH 190 193
ATOM    191  C   GLY A   2      71.236  58.395 170.392  0.00  0.00    +0.000 C 
ATOM    192  O   GLY A   2      71.295  58.204 171.618  0.00  0.00    +0.000 OA
ATOM    193  N   ALA A   3      70.363  57.755 169.584  0.00  0.00    +0.000 N 
ATOM    194  H   ALA A   3      70.346  57.935 168.560  0.00  0.00    +0.000 HD
BRANCH 191 195
ATOM    195  CA  GLY A   2      72.217  59.377 169.767  0.00  0.00    +0.000 C 
BRANCH 195 197
ATOM    196  C   TYR A   1      72.011  61.817 169.937  0.00  0.00    +0.000 C 
ATOM    197  N   GLY A   2      72.183  60.634 170.526  0.00  0.00    +0.000 N 
ATOM    198  H   GLY A   2      72.297  60.600 171.559  0.00  0.00    +0.000 HD
ATOM    199  O   TYR A   1      71.590  61.960 168.779  0.00  0.00    +0.000 OA
BRANCH 196 200
ATOM    200  CA  TYR A   1      72.356  63.041 170.793  0.00  0.00    +0.000 C 
BRANCH 200 201
ATOM    201  CB  TYR A   1      71.298  64.048 170.715  0.00  0.00    +0.000 C 
ATOM    202  CG2 TYR A   1      71.687  65.341 171.518  0.00  0.00    +0.000 C 
ATOM    203  CG1 TYR A   1      69.957  63.502 171.331  0.00  0.00    +0.000 C 
ENDBRANCH 200 201
BRANCH 200 204
ATOM    204  N   TYR A   1      73.543  63.638 170.255  0.00  0.00    +0.000 NA
ATOM    205  H   TYR A   1      73.466  64.195 169.380  0.00  0.00    +0.000 HD
ENDBRANCH 200 204
ENDBRANCH 196 200
ENDBRANCH 195 197
BRANCH 195 206
ATOM    206  CB  GLY A   2      73.673  58.801 169.825  0.00  0.00    +0.000 C 
ATOM    207  CG2 GLY A   2      73.750  57.440 169.091  0.00  0.00    +0.000 C 
BRANCH 206 208
ATOM    208  CG1 GLY A   2      74.609  59.750 169.117  0.00  0.00    +0.000 C 
ATOM    209  CD1 GLY A   2      76.115  59.380 169.365  0.00  0.00    +0.000 C 
ENDBRANCH 206 208
ENDBRANCH 195 206
ENDBRANCH 191 195
ENDBRANCH 190 193
ENDBRANCH 186 190
ENDBRANCH 139 187
ENDBRANCH 138 139
ENDBRANCH 136 138
ENDBRANCH 135 136
ENDBRANCH 134 135
ENDBRANCH 133 134
ENDBRANCH   1 133
TORSDOF 85
REMARK  Name = ../refined-set-2016/3f6e/3f6e_pocket.pdb
REMARK  293 active torsions:
REMARK  status: ('A' for Active; 'I' for Inactive)
REMARK    1  A    between atoms: _1  and  _3
REMARK    2  A    between atoms: _3  and  _4
REMARK    3  A    between atoms: _3  and  _6
REMARK    4  A    between atoms: _6  and  _7
REMARK    5  A    between atoms: _13  and  _14
REMARK    6  A    between atoms: _19  and  _21
REMARK    7  A    between atoms: _21  and  _22
REMARK    8  A    between atoms: _24  and  _26
REMARK    9  A    between atoms: _26  and  _27
REMARK   10  A    between atoms: _26  and  _29
REMARK   11  A    between atoms: _29  and  _30
REMARK   12  A    between atoms: _32  and  _34
REMARK   13  A    between atoms: _34  and  _35
REMARK   14  A    between atoms: _34  and  _37
REMARK   15  A    between atoms: _37  and  _38
REMARK   16  A    between atoms: _43  and  _45
REMARK   17  A    between atoms: _45  and  _46
REMARK   18  A    between atoms: _45  and  _48
REMARK   19  A    between atoms: _48  and  _49
REMARK   20  A    between atoms: _49  and  _50
REMARK   21  A    between atoms: _53  and  _55
REMARK   22  A    between atoms: _55  and  _56
REMARK   23  A    between atoms: _55  and  _58
REMARK   24  A    between atoms: _58  and  _59
REMARK   25  A    between atoms: _62  and  _64
REMARK   26  A    between atoms: _64  and  _65
REMARK   27  A    between atoms: _64  and  _67
REMARK   28  A    between atoms: _67  and  _68
REMARK   29  A    between atoms: _71  and  _73
REMARK   30  A    between atoms: _73  and  _74
REMARK   31  A    between atoms: _77  and  _79
REMARK   32  A    between atoms: _79  and  _80
REMARK   33  A    between atoms: _79  and  _82
REMARK   34  A    between atoms: _82  and  _83
REMARK   35  A    between atoms: _86  and  _88
REMARK   36  A    between atoms: _88  and  _89
REMARK   37  A    between atoms: _88  and  _91
REMARK   38  A    between atoms: _91  and  _92
REMARK   39  A    between atoms: _92  and  _93
REMARK   40  A    between atoms: _98  and  _100
REMARK   41  A    between atoms: _100  and  _101
REMARK   42  A    between atoms: _100  and  _103
REMARK   43  A    between atoms: _103  and  _104
REMARK   44  A    between atoms: _104  and  _105
REMARK   45  A    between atoms: _108  and  _110
REMARK   46  A    between atoms: _110  and  _111
REMARK   47  A    between atoms: _114  and  _116
REMARK   48  A    between atoms: _116  and  _117
REMARK   49  A    between atoms: _116  and  _119
REMARK   50  A    between atoms: _119  and  _120
REMARK   51  A    between atoms: _123  and  _125
REMARK   52  A    between atoms: _125  and  _126
REMARK   53  A    between atoms: _125  and  _128
REMARK   54  A    between atoms: _128  and  _129
REMARK   55  A    between atoms: _134  and  _136
REMARK   56  A    between atoms: _136  and  _137
REMARK   57  A    between atoms: _136  and  _139
REMARK   58  A    between atoms: _139  and  _140
REMARK   59  A    between atoms: _142  and  _144
REMARK   60  A    between atoms: _144  and  _145
REMARK   61  A    between atoms: _148  and  _150
REMARK   62  A    between atoms: _150  and  _151
REMARK   63  A    between atoms: _154  and  _156
REMARK   64  A    between atoms: _156  and  _157
REMARK   65  A    between atoms: _159  and  _161
REMARK   66  A    between atoms: _161  and  _162
REMARK   67  A    between atoms: _161  and  _164
REMARK   68  A    between atoms: _164  and  _165
REMARK   69  A    between atoms: _168  and  _170
REMARK   70  A    between atoms: _170  and  _171
REMARK   71  A    between atoms: _173  and  _175
REMARK   72  A    between atoms: _175  and  _176
REMARK   73  A    between atoms: _175  and  _178
REMARK   74  A    between atoms: _178  and  _179
REMARK   75  A    between atoms: _184  and  _186
REMARK   76  A    between atoms: _186  and  _187
REMARK   77  A    between atoms: _190  and  _192
REMARK   78  A    between atoms: _192  and  _193
REMARK   79  A    between atoms: _192  and  _195
REMARK   80  A    between atoms: _195  and  _196
REMARK   81  A    between atoms: _196  and  _197
REMARK   82  A    between atoms: _202  and  _204
REMARK   83  A    between atoms: _204  and  _205
REMARK   84  A    between atoms: _204  and  _207
REMARK   85  A    between atoms: _207  and  _208
REMARK   86  A    between atoms: _211  and  _213
REMARK   87  A    between atoms: _213  and  _214
REMARK   88  A    between atoms: _213  and  _216
REMARK   89  A    between atoms: _216  and  _217
REMARK   90  A    between atoms: _220  and  _222
REMARK   91  A    between atoms: _222  and  _223
REMARK   92  A    between atoms: _225  and  _227
REMARK   93  A    between atoms: _227  and  _228
REMARK   94  A    between atoms: _231  and  _233
REMARK   95  A    between atoms: _233  and  _234
REMARK   96  A    between atoms: _233  and  _236
REMARK   97  A    between atoms: _236  and  _237
REMARK   98  A    between atoms: _239  and  _241
REMARK   99  A    between atoms: _241  and  _242
REMARK  100  A    between atoms: _241  and  _244
REMARK  101  A    between atoms: _244  and  _245
REMARK  102  A    between atoms: _250  and  _252
REMARK  103  A    between atoms: _252  and  _253
REMARK  104  A    between atoms: _252  and  _255
REMARK  105  A    between atoms: _255  and  _256
REMARK  106  A    between atoms: _258  and  _260
REMARK  107  A    between atoms: _260  and  _261
REMARK  108  A    between atoms: _264  and  _266
REMARK  109  A    between atoms: _266  and  _267
REMARK  110  A    between atoms: _270  and  _272
REMARK  111  A    between atoms: _272  and  _273
REMARK  112  A    between atoms: _272  and  _275
REMARK  113  A    between atoms: _275  and  _276
REMARK  114  A    between atoms: _276  and  _277
REMARK  115  A    between atoms: _277  and  _278
REMARK  116  A    between atoms: _287  and  _289
REMARK  117  A    between atoms: _289  and  _290
REMARK  118  A    between atoms: _289  and  _292
REMARK  119  A    between atoms: _292  and  _293
REMARK  120  A    between atoms: _298  and  _299
REMARK  121  A    between atoms: _301  and  _303
REMARK  122  A    between atoms: _303  and  _304
REMARK  123  A    between atoms: _303  and  _306
REMARK  124  A    between atoms: _306  and  _307
REMARK  125  A    between atoms: _312  and  _314
REMARK  126  A    between atoms: _314  and  _315
REMARK  127  A    between atoms: _314  and  _317
REMARK  128  A    between atoms: _317  and  _318
REMARK  129  A    between atoms: _318  and  _319
REMARK  130  A    between atoms: _325  and  _326
REMARK  131  A    between atoms: _331  and  _333
REMARK  132  A    between atoms: _333  and  _334
REMARK  133  A    between atoms: _333  and  _336
REMARK  134  A    between atoms: _336  and  _337
REMARK  135  A    between atoms: _342  and  _344
REMARK  136  A    between atoms: _344  and  _345
REMARK  137  A    between atoms: _344  and  _347
REMARK  138  A    between atoms: _347  and  _348
REMARK  139  A    between atoms: _348  and  _349
REMARK  140  A    between atoms: _352  and  _354
REMARK  141  A    between atoms: _354  and  _355
REMARK  142  A    between atoms: _354  and  _357
REMARK  143  A    between atoms: _357  and  _358
REMARK  144  A    between atoms: _360  and  _362
REMARK  145  A    between atoms: _362  and  _363
REMARK  146  A    between atoms: _362  and  _365
REMARK  147  A    between atoms: _365  and  _366
REMARK  148  A    between atoms: _369  and  _371
REMARK  149  A    between atoms: _371  and  _372
REMARK  150  A    between atoms: _371  and  _374
REMARK  151  A    between atoms: _374  and  _375
REMARK  152  A    between atoms: _377  and  _379
REMARK  153  A    between atoms: _379  and  _380
REMARK  154  A    between atoms: _379  and  _382
REMARK  155  A    between atoms: _382  and  _383
REMARK  156  A    between atoms: _386  and  _388
REMARK  157  A    between atoms: _388  and  _389
REMARK  158  A    between atoms: _388  and  _391
REMARK  159  A    between atoms: _391  and  _392
REMARK  160  A    between atoms: _395  and  _397
REMARK  161  A    between atoms: _397  and  _398
REMARK  162  A    between atoms: _397  and  _400
REMARK  163  A    between atoms: _400  and  _401
REMARK  164  A    between atoms: _401  and  _402
REMARK  165  A    between atoms: _407  and  _409
REMARK  166  A    between atoms: _409  and  _410
REMARK  167  A    between atoms: _409  and  _412
REMARK  168  A    between atoms: _412  and  _413
REMARK  169  A    between atoms: _419  and  _421
REMARK  170  A    between atoms: _421  and  _422
REMARK  171  A    between atoms: _421  and  _424
REMARK  172  A    between atoms: _426  and  _428
REMARK  173  A    between atoms: _428  and  _429
REMARK  174  A    between atoms: _432  and  _434
REMARK  175  A    between atoms: _434  and  _435
REMARK  176  A    between atoms: _437  and  _439
REMARK  177  A    between atoms: _439  and  _440
REMARK  178  A    between atoms: _442  and  _444
REMARK  179  A    between atoms: _444  and  _445
REMARK  180  A    between atoms: _444  and  _447
REMARK  181  A    between atoms: _447  and  _448
REMARK  182  A    between atoms: _451  and  _453
REMARK  183  A    between atoms: _453  and  _454
REMARK  184  A    between atoms: _456  and  _458
REMARK  185  A    between atoms: _458  and  _459
REMARK  186  A    between atoms: _458  and  _461
REMARK  187  A    between atoms: _461  and  _462
REMARK  188  A    between atoms: _468  and  _470
REMARK  189  A    between atoms: _470  and  _471
REMARK  190  A    between atoms: _470  and  _473
REMARK  191  A    between atoms: _476  and  _478
REMARK  192  A    between atoms: _478  and  _479
REMARK  193  A    between atoms: _478  and  _481
REMARK  194  A    between atoms: _481  and  _482
REMARK  195  A    between atoms: _485  and  _487
REMARK  196  A    between atoms: _487  and  _488
REMARK  197  A    between atoms: _490  and  _492
REMARK  198  A    between atoms: _492  and  _493
REMARK  199  A    between atoms: _492  and  _495
REMARK  200  A    between atoms: _495  and  _496
REMARK  201  A    between atoms: _496  and  _497
REMARK  202  A    between atoms: _497  and  MG_734
REMARK  203  A    between atoms: _499  and  _501
REMARK  204  A    between atoms: _501  and  _502
REMARK  205  A    between atoms: _504  and  _506
REMARK  206  A    between atoms: _506  and  _507
REMARK  207  A    between atoms: _506  and  _509
REMARK  208  A    between atoms: _509  and  _510
REMARK  209  A    between atoms: _512  and  _514
REMARK  210  A    between atoms: _514  and  _515
REMARK  211  A    between atoms: _518  and  _520
REMARK  212  A    between atoms: _520  and  _521
REMARK  213  A    between atoms: _520  and  _523
REMARK  214  A    between atoms: _523  and  _524
REMARK  215  A    between atoms: _529  and  _531
REMARK  216  A    between atoms: _531  and  _532
REMARK  217  A    between atoms: _531  and  _534
REMARK  218  A    between atoms: _534  and  _535
REMARK  219  A    between atoms: _540  and  _541
REMARK  220  A    between atoms: _543  and  _545
REMARK  221  A    between atoms: _545  and  _546
REMARK  222  A    between atoms: _545  and  _548
REMARK  223  A    between atoms: _548  and  _549
REMARK  224  A    between atoms: _552  and  _554
REMARK  225  A    between atoms: _554  and  _555
REMARK  226  A    between atoms: _554  and  _557
REMARK  227  A    between atoms: _557  and  _558
REMARK  228  A    between atoms: _558  and  _559
REMARK  229  A    between atoms: _561  and  _563
REMARK  230  A    between atoms: _563  and  _564
REMARK  231  A    between atoms: _563  and  _566
REMARK  232  A    between atoms: _566  and  _567
REMARK  233  A    between atoms: _572  and  _574
REMARK  234  A    between atoms: _574  and  _575
REMARK  235  A    between atoms: _574  and  _577
REMARK  236  A    between atoms: _577  and  _578
REMARK  237  A    between atoms: _583  and  _585
REMARK  238  A    between atoms: _585  and  _586
REMARK  239  A    between atoms: _588  and  _590
REMARK  240  A    between atoms: _590  and  _591
REMARK  241  A    between atoms: _590  and  _593
REMARK  242  A    between atoms: _591  and  _592
REMARK  243  A    between atoms: _591  and  _597
REMARK  244  A    between atoms: _592  and  MG_734
REMARK  245  A    between atoms: _593  and  _594
REMARK  246  A    between atoms: _597  and  _599
REMARK  247  A    between atoms: _599  and  _600
REMARK  248  A    between atoms: _599  and  _602
REMARK  249  A    between atoms: _602  and  _603
REMARK  250  A    between atoms: _608  and  _609
REMARK  251  A    between atoms: _611  and  _613
REMARK  252  A    between atoms: _613  and  _614
REMARK  253  A    between atoms: _616  and  _618
REMARK  254  A    between atoms: _618  and  _619
REMARK  255  A    between atoms: _622  and  _624
REMARK  256  A    between atoms: _624  and  _625
REMARK  257  A    between atoms: _624  and  _627
REMARK  258  A    between atoms: _627  and  _628
REMARK  259  A    between atoms: _631  and  _633
REMARK  260  A    between atoms: _633  and  _634
REMARK  261  A    between atoms: _633  and  _636
REMARK  262  A    between atoms: _636  and  _637
REMARK  263  A    between atoms: _637  and  _638
REMARK  264  A    between atoms: _638  and  _639
REMARK  265  A    between atoms: _648  and  _650
REMARK  266  A    between atoms: _650  and  _651
REMARK  267  A    between atoms: _650  and  _653
REMARK  268  A    between atoms: _653  and  _654
REMARK  269  A    between atoms: _664  and  _666
REMARK  270  A    between atoms: _666  and  _667
REMARK  271  A    between atoms: _666  and  _669
REMARK  272  A    between atoms: _669  and  _670
REMARK  273  A    between atoms: _676  and  _678
REMARK  274  A    between atoms: _678  and  _679
REMARK  275  A    between atoms: _681  and  _683
REMARK  276  A    between atoms: _683  and  _684
REMARK  277  A    between atoms: _683  and  _686
REMARK  278  A    between atoms: _686  and  _687
REMARK  279  A    between atoms: _690  and  _692
REMARK  280  A    between atoms: _692  and  _693
REMARK  281  A    between atoms: _692  and  _695
REMARK  282  A    between atoms: _698  and  _700
REMARK  283  A    between atoms: _700  and  _701
REMARK  284  A    between atoms: _700  and  _703
REMARK  285  A    between atoms: _703  and  _704
REMARK  286  A    between atoms: _710  and  _712
REMARK  287  A    between atoms: _712  and  _713
REMARK  288  A    between atoms: _712  and  _715
REMARK  289  A    between atoms: _715  and  _716
REMARK  290  A    between atoms: _719  and  _721
REMARK  291  A    between atoms: _721  and  _722
REMARK  292  A    between atoms: _721  and  _724
REMARK  293  A    between atoms: _728  and  _729
REMARK                            x       y       z     vdW  Elec       q    Type
REMARK                         _______ _______ _______ _____ _____    ______ ____
ROOT
ATOM      1  C   GLY A   1      63.535  44.282 165.840  0.00  0.00    +0.240 C 
ATOM      2  N   LEU A   2      62.437  44.810 166.394  0.00  0.00    -0.298 N 
ATOM      3  H   LEU A   2      61.638  44.193 166.643  0.00  0.00    +0.150 HD
ATOM      4  O   GLY A   1      64.535  44.994 165.592  0.00  0.00    -0.274 OA
ENDROOT
BRANCH   1   5
ATOM      5  CA  GLY A   1      63.536  42.806 165.548  0.00  0.00    +0.169 C 
BRANCH   5   6
ATOM      6  N   GLY A   1      62.250  42.117 165.473  0.00  0.00    -0.236 NA
ATOM      7  H   GLY A   1      61.946  41.515 166.265  0.00  0.00    +0.142 HD
ENDBRANCH   5   6
ENDBRANCH   1   5
BRANCH   2   8
ATOM      8  CA  LEU A   2      62.352  46.226 166.648  0.00  0.00    +0.137 C 
BRANCH   8   9
ATOM      9  C   LEU A   2      62.800  46.659 168.039  0.00  0.00    +0.227 C 
ATOM     10  O   LEU A   2      62.888  47.881 168.264  0.00  0.00    -0.286 OA
ENDBRANCH   8   9
BRANCH   8  11
ATOM     11  CB  LEU A   2      60.930  46.734 166.427  0.00  0.00    +0.028 C 
BRANCH  11  12
ATOM     12  CG  LEU A   2      60.475  46.479 164.982  0.00  0.00    +0.002 C 
ATOM     13  CD2 LEU A   2      59.178  47.177 164.698  0.00  0.00    +0.000 C 
ATOM     14  CD1 LEU A   2      61.429  46.863 163.878  0.00  0.00    +0.000 C 
ENDBRANCH  11  12
ENDBRANCH   8  11
ENDBRANCH   2   8
TORSDOF 6
REMARK  Name = ../refined-set-2016/3f6e/3f6e_pocket.pdb
REMARK  293 active torsions:
REMARK  status: ('A' for Active; 'I' for Inactive)
REMARK    1  A    between atoms: _1  and  _3
REMARK    2  A    between atoms: _3  and  _4
REMARK    3  A    between atoms: _3  and  _6
REMARK    4  A    between atoms: _6  and  _7
REMARK    5  A    between atoms: _13  and  _14
REMARK    6  A    between atoms: _19  and  _21
REMARK    7  A    between atoms: _21  and  _22
REMARK    8  A    between atoms: _24  and  _26
REMARK    9  A    between atoms: _26  and  _27
REMARK   10  A    between atoms: _26  and  _29
REMARK   11  A    between atoms: _29  and  _30
REMARK   12  A    between atoms: _32  and  _34
REMARK   13  A    between atoms: _34  and  _35
REMARK   14  A    between atoms: _34  and  _37
REMARK   15  A    between atoms: _37  and  _38
REMARK   16  A    between atoms: _43  and  _45
REMARK   17  A    between atoms: _45  and  _46
REMARK   18  A    between atoms: _45  and  _48
REMARK   19  A    between atoms: _48  and  _49
REMARK   20  A    between atoms: _49  and  _50
REMARK   21  A    between atoms: _53  and  _55
REMARK   22  A    between atoms: _55  and  _56
REMARK   23  A    between atoms: _55  and  _58
REMARK   24  A    between atoms: _58  and  _59
REMARK   25  A    between atoms: _62  and  _64
REMARK   26  A    between atoms: _64  and  _65
REMARK   27  A    between atoms: _64  and  _67
REMARK   28  A    between atoms: _67  and  _68
REMARK   29  A    between atoms: _71  and  _73
REMARK   30  A    between atoms: _73  and  _74
REMARK   31  A    between atoms: _77  and  _79
REMARK   32  A    between atoms: _79  and  _80
REMARK   33  A    between atoms: _79  and  _82
REMARK   34  A    between atoms: _82  and  _83
REMARK   35  A    between atoms: _86  and  _88
REMARK   36  A    between atoms: _88  and  _89
REMARK   37  A    between atoms: _88  and  _91
REMARK   38  A    between atoms: _91  and  _92
REMARK   39  A    between atoms: _92  and  _93
REMARK   40  A    between atoms: _98  and  _100
REMARK   41  A    between atoms: _100  and  _101
REMARK   42  A    between atoms: _100  and  _103
REMARK   43  A    between atoms: _103  and  _104
REMARK   44  A    between atoms: _104  and  _105
REMARK   45  A    between atoms: _108  and  _110
REMARK   46  A    between atoms: _110  and  _111
REMARK   47  A    between atoms: _114  and  _116
REMARK   48  A    between atoms: _116  and  _117
REMARK   49  A    between atoms: _116  and  _119
REMARK   50  A    between atoms: _119  and  _120
REMARK   51  A    between atoms: _123  and  _125
REMARK   52  A    between atoms: _125  and  _126
REMARK   53  A    between atoms: _125  and  _128
REMARK   54  A    between atoms: _128  and  _129
REMARK   55  A    between atoms: _134  and  _136
REMARK   56  A    between atoms: _136  and  _137
REMARK   57  A    between atoms: _136  and  _139
REMARK   58  A    between atoms: _139  and  _140
REMARK   59  A    between atoms: _142  and  _144
REMARK   60  A    between atoms: _144  and  _145
REMARK   61  A    between atoms: _148  and  _150
REMARK   62  A    between atoms: _150  and  _151
REMARK   63  A    between atoms: _154  and  _156
REMARK   64  A    between atoms: _156  and  _157
REMARK   65  A    between atoms: _159  and  _161
REMARK   66  A    between atoms: _161  and  _162
REMARK   67  A    between atoms: _161  and  _164
REMARK   68  A    between atoms: _164  and  _165
REMARK   69  A    between atoms: _168  and  _170
REMARK   70  A    between atoms: _170  and  _171
REMARK   71  A    between atoms: _173  and  _175
REMARK   72  A    between atoms: _175  and  _176
REMARK   73  A    between atoms: _175  and  _178
REMARK   74  A    between atoms: _178  and  _179
REMARK   75  A    between atoms: _184  and  _186
REMARK   76  A    between atoms: _186  and  _187
REMARK   77  A    between atoms: _190  and  _192
REMARK   78  A    between atoms: _192  and  _193
REMARK   79  A    between atoms: _192  and  _195
REMARK   80  A    between atoms: _195  and  _196
REMARK   81  A    between atoms: _196  and  _197
REMARK   82  A    between atoms: _202  and  _204
REMARK   83  A    between atoms: _204  and  _205
REMARK   84  A    between atoms: _204  and  _207
REMARK   85  A    between atoms: _207  and  _208
REMARK   86  A    between atoms: _211  and  _213
REMARK   87  A    between atoms: _213  and  _214
REMARK   88  A    between atoms: _213  and  _216
REMARK   89  A    between atoms: _216  and  _217
REMARK   90  A    between atoms: _220  and  _222
REMARK   91  A    between atoms: _222  and  _223
REMARK   92  A    between atoms: _225  and  _227
REMARK   93  A    between atoms: _227  and  _228
REMARK   94  A    between atoms: _231  and  _233
REMARK   95  A    between atoms: _233  and  _234
REMARK   96  A    between atoms: _233  and  _236
REMARK   97  A    between atoms: _236  and  _237
REMARK   98  A    between atoms: _239  and  _241
REMARK   99  A    between atoms: _241  and  _242
REMARK  100  A    between atoms: _241  and  _244
REMARK  101  A    between atoms: _244  and  _245
REMARK  102  A    between atoms: _250  and  _252
REMARK  103  A    between atoms: _252  and  _253
REMARK  104  A    between atoms: _252  and  _255
REMARK  105  A    between atoms: _255  and  _256
REMARK  106  A    between atoms: _258  and  _260
REMARK  107  A    between atoms: _260  and  _261
REMARK  108  A    between atoms: _264  and  _266
REMARK  109  A    between atoms: _266  and  _267
REMARK  110  A    between atoms: _270  and  _272
REMARK  111  A    between atoms: _272  and  _273
REMARK  112  A    between atoms: _272  and  _275
REMARK  113  A    between atoms: _275  and  _276
REMARK  114  A    between atoms: _276  and  _277
REMARK  115  A    between atoms: _277  and  _278
REMARK  116  A    between atoms: _287  and  _289
REMARK  117  A    between atoms: _289  and  _290
REMARK  118  A    between atoms: _289  and  _292
REMARK  119  A    between atoms: _292  and  _293
REMARK  120  A    between atoms: _298  and  _299
REMARK  121  A    between atoms: _301  and  _303
REMARK  122  A    between atoms: _303  and  _304
REMARK  123  A    between atoms: _303  and  _306
REMARK  124  A    between atoms: _306  and  _307
REMARK  125  A    between atoms: _312  and  _314
REMARK  126  A    between atoms: _314  and  _315
REMARK  127  A    between atoms: _314  and  _317
REMARK  128  A    between atoms: _317  and  _318
REMARK  129  A    between atoms: _318  and  _319
REMARK  130  A    between atoms: _325  and  _326
REMARK  131  A    between atoms: _331  and  _333
REMARK  132  A    between atoms: _333  and  _334
REMARK  133  A    between atoms: _333  and  _336
REMARK  134  A    between atoms: _336  and  _337
REMARK  135  A    between atoms: _342  and  _344
REMARK  136  A    between atoms: _344  and  _345
REMARK  137  A    between atoms: _344  and  _347
REMARK  138  A    between atoms: _347  and  _348
REMARK  139  A    between atoms: _348  and  _349
REMARK  140  A    between atoms: _352  and  _354
REMARK  141  A    between atoms: _354  and  _355
REMARK  142  A    between atoms: _354  and  _357
REMARK  143  A    between atoms: _357  and  _358
REMARK  144  A    between atoms: _360  and  _362
REMARK  145  A    between atoms: _362  and  _363
REMARK  146  A    between atoms: _362  and  _365
REMARK  147  A    between atoms: _365  and  _366
REMARK  148  A    between atoms: _369  and  _371
REMARK  149  A    between atoms: _371  and  _372
REMARK  150  A    between atoms: _371  and  _374
REMARK  151  A    between atoms: _374  and  _375
REMARK  152  A    between atoms: _377  and  _379
REMARK  153  A    between atoms: _379  and  _380
REMARK  154  A    between atoms: _379  and  _382
REMARK  155  A    between atoms: _382  and  _383
REMARK  156  A    between atoms: _386  and  _388
REMARK  157  A    between atoms: _388  and  _389
REMARK  158  A    between atoms: _388  and  _391
REMARK  159  A    between atoms: _391  and  _392
REMARK  160  A    between atoms: _395  and  _397
REMARK  161  A    between atoms: _397  and  _398
REMARK  162  A    between atoms: _397  and  _400
REMARK  163  A    between atoms: _400  and  _401
REMARK  164  A    between atoms: _401  and  _402
REMARK  165  A    between atoms: _407  and  _409
REMARK  166  A    between atoms: _409  and  _410
REMARK  167  A    between atoms: _409  and  _412
REMARK  168  A    between atoms: _412  and  _413
REMARK  169  A    between atoms: _419  and  _421
REMARK  170  A    between atoms: _421  and  _422
REMARK  171  A    between atoms: _421  and  _424
REMARK  172  A    between atoms: _426  and  _428
REMARK  173  A    between atoms: _428  and  _429
REMARK  174  A    between atoms: _432  and  _434
REMARK  175  A    between atoms: _434  and  _435
REMARK  176  A    between atoms: _437  and  _439
REMARK  177  A    between atoms: _439  and  _440
REMARK  178  A    between atoms: _442  and  _444
REMARK  179  A    between atoms: _444  and  _445
REMARK  180  A    between atoms: _444  and  _447
REMARK  181  A    between atoms: _447  and  _448
REMARK  182  A    between atoms: _451  and  _453
REMARK  183  A    between atoms: _453  and  _454
REMARK  184  A    between atoms: _456  and  _458
REMARK  185  A    between atoms: _458  and  _459
REMARK  186  A    between atoms: _458  and  _461
REMARK  187  A    between atoms: _461  and  _462
REMARK  188  A    between atoms: _468  and  _470
REMARK  189  A    between atoms: _470  and  _471
REMARK  190  A    between atoms: _470  and  _473
REMARK  191  A    between atoms: _476  and  _478
REMARK  192  A    between atoms: _478  and  _479
REMARK  193  A    between atoms: _478  and  _481
REMARK  194  A    between atoms: _481  and  _482
REMARK  195  A    between atoms: _485  and  _487
REMARK  196  A    between atoms: _487  and  _488
REMARK  197  A    between atoms: _490  and  _492
REMARK  198  A    between atoms: _492  and  _493
REMARK  199  A    between atoms: _492  and  _495
REMARK  200  A    between atoms: _495  and  _496
REMARK  201  A    between atoms: _496  and  _497
REMARK  202  A    between atoms: _497  and  MG_734
REMARK  203  A    between atoms: _499  and  _501
REMARK  204  A    between atoms: _501  and  _502
REMARK  205  A    between atoms: _504  and  _506
REMARK  206  A    between atoms: _506  and  _507
REMARK  207  A    between atoms: _506  and  _509
REMARK  208  A    between atoms: _509  and  _510
REMARK  209  A    between atoms: _512  and  _514
REMARK  210  A    between atoms: _514  and  _515
REMARK  211  A    between atoms: _518  and  _520
REMARK  212  A    between atoms: _520  and  _521
REMARK  213  A    between atoms: _520  and  _523
REMARK  214  A    between atoms: _523  and  _524
REMARK  215  A    between atoms: _529  and  _531
REMARK  216  A    between atoms: _531  and  _532
REMARK  217  A    between atoms: _531  and  _534
REMARK  218  A    between atoms: _534  and  _535
REMARK  219  A    between atoms: _540  and  _541
REMARK  220  A    between atoms: _543  and  _545
REMARK  221  A    between atoms: _545  and  _546
REMARK  222  A    between atoms: _545  and  _548
REMARK  223  A    between atoms: _548  and  _549
REMARK  224  A    between atoms: _552  and  _554
REMARK  225  A    between atoms: _554  and  _555
REMARK  226  A    between atoms: _554  and  _557
REMARK  227  A    between atoms: _557  and  _558
REMARK  228  A    between atoms: _558  and  _559
REMARK  229  A    between atoms: _561  and  _563
REMARK  230  A    between atoms: _563  and  _564
REMARK  231  A    between atoms: _563  and  _566
REMARK  232  A    between atoms: _566  and  _567
REMARK  233  A    between atoms: _572  and  _574
REMARK  234  A    between atoms: _574  and  _575
REMARK  235  A    between atoms: _574  and  _577
REMARK  236  A    between atoms: _577  and  _578
REMARK  237  A    between atoms: _583  and  _585
REMARK  238  A    between atoms: _585  and  _586
REMARK  239  A    between atoms: _588  and  _590
REMARK  240  A    between atoms: _590  and  _591
REMARK  241  A    between atoms: _590  and  _593
REMARK  242  A    between atoms: _591  and  _592
REMARK  243  A    between atoms: _591  and  _597
REMARK  244  A    between atoms: _592  and  MG_734
REMARK  245  A    between atoms: _593  and  _594
REMARK  246  A    between atoms: _597  and  _599
REMARK  247  A    between atoms: _599  and  _600
REMARK  248  A    between atoms: _599  and  _602
REMARK  249  A    between atoms: _602  and  _603
REMARK  250  A    between atoms: _608  and  _609
REMARK  251  A    between atoms: _611  and  _613
REMARK  252  A    between atoms: _613  and  _614
REMARK  253  A    between atoms: _616  and  _618
REMARK  254  A    between atoms: _618  and  _619
REMARK  255  A    between atoms: _622  and  _624
REMARK  256  A    between atoms: _624  and  _625
REMARK  257  A    between atoms: _624  and  _627
REMARK  258  A    between atoms: _627  and  _628
REMARK  259  A    between atoms: _631  and  _633
REMARK  260  A    between atoms: _633  and  _634
REMARK  261  A    between atoms: _633  and  _636
REMARK  262  A    between atoms: _636  and  _637
REMARK  263  A    between atoms: _637  and  _638
REMARK  264  A    between atoms: _638  and  _639
REMARK  265  A    between atoms: _648  and  _650
REMARK  266  A    between atoms: _650  and  _651
REMARK  267  A    between atoms: _650  and  _653
REMARK  268  A    between atoms: _653  and  _654
REMARK  269  A    between atoms: _664  and  _666
REMARK  270  A    between atoms: _666  and  _667
REMARK  271  A    between atoms: _666  and  _669
REMARK  272  A    between atoms: _669  and  _670
REMARK  273  A    between atoms: _676  and  _678
REMARK  274  A    between atoms: _678  and  _679
REMARK  275  A    between atoms: _681  and  _683
REMARK  276  A    between atoms: _683  and  _684
REMARK  277  A    between atoms: _683  and  _686
REMARK  278  A    between atoms: _686  and  _687
REMARK  279  A    between atoms: _690  and  _692
REMARK  280  A    between atoms: _692  and  _693
REMARK  281  A    between atoms: _692  and  _695
REMARK  282  A    between atoms: _698  and  _700
REMARK  283  A    between atoms: _700  and  _701
REMARK  284  A    between atoms: _700  and  _703
REMARK  285  A    between atoms: _703  and  _704
REMARK  286  A    between atoms: _710  and  _712
REMARK  287  A    between atoms: _712  and  _713
REMARK  288  A    between atoms: _712  and  _715
REMARK  289  A    between atoms: _715  and  _716
REMARK  290  A    between atoms: _719  and  _721
REMARK  291  A    between atoms: _721  and  _722
REMARK  292  A    between atoms: _721  and  _724
REMARK  293  A    between atoms: _728  and  _729
REMARK                            x       y       z     vdW  Elec       q    Type
REMARK                         _______ _______ _______ _____ _____    ______ ____
ROOT
ATOM      1  CA  VAL A   1      66.869  46.485 171.728  0.00  0.00    +0.133 C 
ENDROOT
BRANCH   1   2
ATOM      2  CB  VAL A   1      67.777  47.496 170.971  0.00  0.00    +0.023 C 
ATOM      3  CG2 VAL A   1      67.288  48.937 171.101  0.00  0.00    +0.002 C 
ATOM      4  CG1 VAL A   1      67.937  47.072 169.494  0.00  0.00    +0.002 C 
ENDBRANCH   1   2
BRANCH   1   5
ATOM      5  N   VAL A   1      65.438  46.634 171.421  0.00  0.00    -0.239 NA
ATOM      6  H   VAL A   1      64.903  47.436 171.812  0.00  0.00    +0.142 HD
ENDBRANCH   1   5
BRANCH   1   7
ATOM      7  C   VAL A   1      67.059  46.638 173.262  0.00  0.00    +0.224 C 
ATOM      8  O   VAL A   1      67.865  47.455 173.732  0.00  0.00    -0.287 OA
ENDBRANCH   1   7
TORSDOF 3
REMARK  Name = ../refined-set-2016/3f6e/3f6e_pocket.pdb
REMARK  293 active torsions:
REMARK  status: ('A' for Active; 'I' for Inactive)
REMARK    1  A    between atoms: _1  and  _3
REMARK    2  A    between atoms: _3  and  _4
REMARK    3  A    between atoms: _3  and  _6
REMARK    4  A    between atoms: _6  and  _7
REMARK    5  A    between atoms: _13  and  _14
REMARK    6  A    between atoms: _19  and  _21
REMARK    7  A    between atoms: _21  and  _22
REMARK    8  A    between atoms: _24  and  _26
REMARK    9  A    between atoms: _26  and  _27
REMARK   10  A    between atoms: _26  and  _29
REMARK   11  A    between atoms: _29  and  _30
REMARK   12  A    between atoms: _32  and  _34
REMARK   13  A    between atoms: _34  and  _35
REMARK   14  A    between atoms: _34  and  _37
REMARK   15  A    between atoms: _37  and  _38
REMARK   16  A    between atoms: _43  and  _45
REMARK   17  A    between atoms: _45  and  _46
REMARK   18  A    between atoms: _45  and  _48
REMARK   19  A    between atoms: _48  and  _49
REMARK   20  A    between atoms: _49  and  _50
REMARK   21  A    between atoms: _53  and  _55
REMARK   22  A    between atoms: _55  and  _56
REMARK   23  A    between atoms: _55  and  _58
REMARK   24  A    between atoms: _58  and  _59
REMARK   25  A    between atoms: _62  and  _64
REMARK   26  A    between atoms: _64  and  _65
REMARK   27  A    between atoms: _64  and  _67
REMARK   28  A    between atoms: _67  and  _68
REMARK   29  A    between atoms: _71  and  _73
REMARK   30  A    between atoms: _73  and  _74
REMARK   31  A    between atoms: _77  and  _79
REMARK   32  A    between atoms: _79  and  _80
REMARK   33  A    between atoms: _79  and  _82
REMARK   34  A    between atoms: _82  and  _83
REMARK   35  A    between atoms: _86  and  _88
REMARK   36  A    between atoms: _88  and  _89
REMARK   37  A    between atoms: _88  and  _91
REMARK   38  A    between atoms: _91  and  _92
REMARK   39  A    between atoms: _92  and  _93
REMARK   40  A    between atoms: _98  and  _100
REMARK   41  A    between atoms: _100  and  _101
REMARK   42  A    between atoms: _100  and  _103
REMARK   43  A    between atoms: _103  and  _104
REMARK   44  A    between atoms: _104  and  _105
REMARK   45  A    between atoms: _108  and  _110
REMARK   46  A    between atoms: _110  and  _111
REMARK   47  A    between atoms: _114  and  _116
REMARK   48  A    between atoms: _116  and  _117
REMARK   49  A    between atoms: _116  and  _119
REMARK   50  A    between atoms: _119  and  _120
REMARK   51  A    between atoms: _123  and  _125
REMARK   52  A    between atoms: _125  and  _126
REMARK   53  A    between atoms: _125  and  _128
REMARK   54  A    between atoms: _128  and  _129
REMARK   55  A    between atoms: _134  and  _136
REMARK   56  A    between atoms: _136  and  _137
REMARK   57  A    between atoms: _136  and  _139
REMARK   58  A    between atoms: _139  and  _140
REMARK   59  A    between atoms: _142  and  _144
REMARK   60  A    between atoms: _144  and  _145
REMARK   61  A    between atoms: _148  and  _150
REMARK   62  A    between atoms: _150  and  _151
REMARK   63  A    between atoms: _154  and  _156
REMARK   64  A    between atoms: _156  and  _157
REMARK   65  A    between atoms: _159  and  _161
REMARK   66  A    between atoms: _161  and  _162
REMARK   67  A    between atoms: _161  and  _164
REMARK   68  A    between atoms: _164  and  _165
REMARK   69  A    between atoms: _168  and  _170
REMARK   70  A    between atoms: _170  and  _171
REMARK   71  A    between atoms: _173  and  _175
REMARK   72  A    between atoms: _175  and  _176
REMARK   73  A    between atoms: _175  and  _178
REMARK   74  A    between atoms: _178  and  _179
REMARK   75  A    between atoms: _184  and  _186
REMARK   76  A    between atoms: _186  and  _187
REMARK   77  A    between atoms: _190  and  _192
REMARK   78  A    between atoms: _192  and  _193
REMARK   79  A    between atoms: _192  and  _195
REMARK   80  A    between atoms: _195  and  _196
REMARK   81  A    between atoms: _196  and  _197
REMARK   82  A    between atoms: _202  and  _204
REMARK   83  A    between atoms: _204  and  _205
REMARK   84  A    between atoms: _204  and  _207
REMARK   85  A    between atoms: _207  and  _208
REMARK   86  A    between atoms: _211  and  _213
REMARK   87  A    between atoms: _213  and  _214
REMARK   88  A    between atoms: _213  and  _216
REMARK   89  A    between atoms: _216  and  _217
REMARK   90  A    between atoms: _220  and  _222
REMARK   91  A    between atoms: _222  and  _223
REMARK   92  A    between atoms: _225  and  _227
REMARK   93  A    between atoms: _227  and  _228
REMARK   94  A    between atoms: _231  and  _233
REMARK   95  A    between atoms: _233  and  _234
REMARK   96  A    between atoms: _233  and  _236
REMARK   97  A    between atoms: _236  and  _237
REMARK   98  A    between atoms: _239  and  _241
REMARK   99  A    between atoms: _241  and  _242
REMARK  100  A    between atoms: _241  and  _244
REMARK  101  A    between atoms: _244  and  _245
REMARK  102  A    between atoms: _250  and  _252
REMARK  103  A    between atoms: _252  and  _253
REMARK  104  A    between atoms: _252  and  _255
REMARK  105  A    between atoms: _255  and  _256
REMARK  106  A    between atoms: _258  and  _260
REMARK  107  A    between atoms: _260  and  _261
REMARK  108  A    between atoms: _264  and  _266
REMARK  109  A    between atoms: _266  and  _267
REMARK  110  A    between atoms: _270  and  _272
REMARK  111  A    between atoms: _272  and  _273
REMARK  112  A    between atoms: _272  and  _275
REMARK  113  A    between atoms: _275  and  _276
REMARK  114  A    between atoms: _276  and  _277
REMARK  115  A    between atoms: _277  and  _278
REMARK  116  A    between atoms: _287  and  _289
REMARK  117  A    between atoms: _289  and  _290
REMARK  118  A    between atoms: _289  and  _292
REMARK  119  A    between atoms: _292  and  _293
REMARK  120  A    between atoms: _298  and  _299
REMARK  121  A    between atoms: _301  and  _303
REMARK  122  A    between atoms: _303  and  _304
REMARK  123  A    between atoms: _303  and  _306
REMARK  124  A    between atoms: _306  and  _307
REMARK  125  A    between atoms: _312  and  _314
REMARK  126  A    between atoms: _314  and  _315
REMARK  127  A    between atoms: _314  and  _317
REMARK  128  A    between atoms: _317  and  _318
REMARK  129  A    between atoms: _318  and  _319
REMARK  130  A    between atoms: _325  and  _326
REMARK  131  A    between atoms: _331  and  _333
REMARK  132  A    between atoms: _333  and  _334
REMARK  133  A    between atoms: _333  and  _336
REMARK  134  A    between atoms: _336  and  _337
REMARK  135  A    between atoms: _342  and  _344
REMARK  136  A    between atoms: _344  and  _345
REMARK  137  A    between atoms: _344  and  _347
REMARK  138  A    between atoms: _347  and  _348
REMARK  139  A    between atoms: _348  and  _349
REMARK  140  A    between atoms: _352  and  _354
REMARK  141  A    between atoms: _354  and  _355
REMARK  142  A    between atoms: _354  and  _357
REMARK  143  A    between atoms: _357  and  _358
REMARK  144  A    between atoms: _360  and  _362
REMARK  145  A    between atoms: _362  and  _363
REMARK  146  A    between atoms: _362  and  _365
REMARK  147  A    between atoms: _365  and  _366
REMARK  148  A    between atoms: _369  and  _371
REMARK  149  A    between atoms: _371  and  _372
REMARK  150  A    between atoms: _371  and  _374
REMARK  151  A    between atoms: _374  and  _375
REMARK  152  A    between atoms: _377  and  _379
REMARK  153  A    between atoms: _379  and  _380
REMARK  154  A    between atoms: _379  and  _382
REMARK  155  A    between atoms: _382  and  _383
REMARK  156  A    between atoms: _386  and  _388
REMARK  157  A    between atoms: _388  and  _389
REMARK  158  A    between atoms: _388  and  _391
REMARK  159  A    between atoms: _391  and  _392
REMARK  160  A    between atoms: _395  and  _397
REMARK  161  A    between atoms: _397  and  _398
REMARK  162  A    between atoms: _397  and  _400
REMARK  163  A    between atoms: _400  and  _401
REMARK  164  A    between atoms: _401  and  _402
REMARK  165  A    between atoms: _407  and  _409
REMARK  166  A    between atoms: _409  and  _410
REMARK  167  A    between atoms: _409  and  _412
REMARK  168  A    between atoms: _412  and  _413
REMARK  169  A    between atoms: _419  and  _421
REMARK  170  A    between atoms: _421  and  _422
REMARK  171  A    between atoms: _421  and  _424
REMARK  172  A    between atoms: _426  and  _428
REMARK  173  A    between atoms: _428  and  _429
REMARK  174  A    between atoms: _432  and  _434
REMARK  175  A    between atoms: _434  and  _435
REMARK  176  A    between atoms: _437  and  _439
REMARK  177  A    between atoms: _439  and  _440
REMARK  178  A    between atoms: _442  and  _444
REMARK  179  A    between atoms: _444  and  _445
REMARK  180  A    between atoms: _444  and  _447
REMARK  181  A    between atoms: _447  and  _448
REMARK  182  A    between atoms: _451  and  _453
REMARK  183  A    between atoms: _453  and  _454
REMARK  184  A    between atoms: _456  and  _458
REMARK  185  A    between atoms: _458  and  _459
REMARK  186  A    between atoms: _458  and  _461
REMARK  187  A    between atoms: _461  and  _462
REMARK  188  A    between atoms: _468  and  _470
REMARK  189  A    between atoms: _470  and  _471
REMARK  190  A    between atoms: _470  and  _473
REMARK  191  A    between atoms: _476  and  _478
REMARK  192  A    between atoms: _478  and  _479
REMARK  193  A    between atoms: _478  and  _481
REMARK  194  A    between atoms: _481  and  _482
REMARK  195  A    between atoms: _485  and  _487
REMARK  196  A    between atoms: _487  and  _488
REMARK  197  A    between atoms: _490  and  _492
REMARK  198  A    between atoms: _492  and  _493
REMARK  199  A    between atoms: _492  and  _495
REMARK  200  A    between atoms: _495  and  _496
REMARK  201  A    between atoms: _496  and  _497
REMARK  202  A    between atoms: _497  and  MG_734
REMARK  203  A    between atoms: _499  and  _501
REMARK  204  A    between atoms: _501  and  _502
REMARK  205  A    between atoms: _504  and  _506
REMARK  206  A    between atoms: _506  and  _507
REMARK  207  A    between atoms: _506  and  _509
REMARK  208  A    between atoms: _509  and  _510
REMARK  209  A    between atoms: _512  and  _514
REMARK  210  A    between atoms: _514  and  _515
REMARK  211  A    between atoms: _518  and  _520
REMARK  212  A    between atoms: _520  and  _521
REMARK  213  A    between atoms: _520  and  _523
REMARK  214  A    between atoms: _523  and  _524
REMARK  215  A    between atoms: _529  and  _531
REMARK  216  A    between atoms: _531  and  _532
REMARK  217  A    between atoms: _531  and  _534
REMARK  218  A    between atoms: _534  and  _535
REMARK  219  A    between atoms: _540  and  _541
REMARK  220  A    between atoms: _543  and  _545
REMARK  221  A    between atoms: _545  and  _546
REMARK  222  A    between atoms: _545  and  _548
REMARK  223  A    between atoms: _548  and  _549
REMARK  224  A    between atoms: _552  and  _554
REMARK  225  A    between atoms: _554  and  _555
REMARK  226  A    between atoms: _554  and  _557
REMARK  227  A    between atoms: _557  and  _558
REMARK  228  A    between atoms: _558  and  _559
REMARK  229  A    between atoms: _561  and  _563
REMARK  230  A    between atoms: _563  and  _564
REMARK  231  A    between atoms: _563  and  _566
REMARK  232  A    between atoms: _566  and  _567
REMARK  233  A    between atoms: _572  and  _574
REMARK  234  A    between atoms: _574  and  _575
REMARK  235  A    between atoms: _574  and  _577
REMARK  236  A    between atoms: _577  and  _578
REMARK  237  A    between atoms: _583  and  _585
REMARK  238  A    between atoms: _585  and  _586
REMARK  239  A    between atoms: _588  and  _590
REMARK  240  A    between atoms: _590  and  _591
REMARK  241  A    between atoms: _590  and  _593
REMARK  242  A    between atoms: _591  and  _592
REMARK  243  A    between atoms: _591  and  _597
REMARK  244  A    between atoms: _592  and  MG_734
REMARK  245  A    between atoms: _593  and  _594
REMARK  246  A    between atoms: _597  and  _599
REMARK  247  A    between atoms: _599  and  _600
REMARK  248  A    between atoms: _599  and  _602
REMARK  249  A    between atoms: _602  and  _603
REMARK  250  A    between atoms: _608  and  _609
REMARK  251  A    between atoms: _611  and  _613
REMARK  252  A    between atoms: _613  and  _614
REMARK  253  A    between atoms: _616  and  _618
REMARK  254  A    between atoms: _618  and  _619
REMARK  255  A    between atoms: _622  and  _624
REMARK  256  A    between atoms: _624  and  _625
REMARK  257  A    between atoms: _624  and  _627
REMARK  258  A    between atoms: _627  and  _628
REMARK  259  A    between atoms: _631  and  _633
REMARK  260  A    between atoms: _633  and  _634
REMARK  261  A    between atoms: _633  and  _636
REMARK  262  A    between atoms: _636  and  _637
REMARK  263  A    between atoms: _637  and  _638
REMARK  264  A    between atoms: _638  and  _639
REMARK  265  A    between atoms: _648  and  _650
REMARK  266  A    between atoms: _650  and  _651
REMARK  267  A    between atoms: _650  and  _653
REMARK  268  A    between atoms: _653  and  _654
REMARK  269  A    between atoms: _664  and  _666
REMARK  270  A    between atoms: _666  and  _667
REMARK  271  A    between atoms: _666  and  _669
REMARK  272  A    between atoms: _669  and  _670
REMARK  273  A    between atoms: _676  and  _678
REMARK  274  A    between atoms: _678  and  _679
REMARK  275  A    between atoms: _681  and  _683
REMARK  276  A    between atoms: _683  and  _684
REMARK  277  A    between atoms: _683  and  _686
REMARK  278  A    between atoms: _686  and  _687
REMARK  279  A    between atoms: _690  and  _692
REMARK  280  A    between atoms: _692  and  _693
REMARK  281  A    between atoms: _692  and  _695
REMARK  282  A    between atoms: _698  and  _700
REMARK  283  A    between atoms: _700  and  _701
REMARK  284  A    between atoms: _700  and  _703
REMARK  285  A    between atoms: _703  and  _704
REMARK  286  A    between atoms: _710  and  _712
REMARK  287  A    between atoms: _712  and  _713
REMARK  288  A    between atoms: _712  and  _715
REMARK  289  A    between atoms: _715  and  _716
REMARK  290  A    between atoms: _719  and  _721
REMARK  291  A    between atoms: _721  and  _722
REMARK  292  A    between atoms: _721  and  _724
REMARK  293  A    between atoms: _728  and  _729
REMARK                            x       y       z     vdW  Elec       q    Type
REMARK                         _______ _______ _______ _____ _____    ______ ____
ROOT
ATOM      1  CB  PHE A   1      74.911  53.345 177.315  0.00  0.00    +0.051 C 
ENDROOT
BRANCH   1   2
ATOM      2  CG  PHE A   1      74.083  52.804 176.220  0.00  0.00    -0.020 A 
ATOM      3  CD2 PHE A   1      72.702  52.455 176.401  0.00  0.00    -0.004 A 
ATOM      4  CE2 PHE A   1      71.977  51.893 175.351  0.00  0.00    -0.000 A 
ATOM      5  CZ  PHE A   1      72.605  51.681 174.093  0.00  0.00    -0.000 A 
ATOM      6  CE1 PHE A   1      73.972  51.989 173.946  0.00  0.00    -0.000 A 
ATOM      7  CD1 PHE A   1      74.684  52.540 174.981  0.00  0.00    -0.004 A 
ENDBRANCH   1   2
BRANCH   1   8
ATOM      8  CA  PHE A   1      75.710  52.210 178.049  0.00  0.00    +0.137 C 
BRANCH   8   9
ATOM      9  N   PHE A   1      74.806  51.283 178.741  0.00  0.00    -0.239 NA
ATOM     10  H   PHE A   1      73.842  51.598 178.969  0.00  0.00    +0.142 HD
ENDBRANCH   8   9
BRANCH   8  11
ATOM     11  C   PHE A   1      76.829  52.719 178.932  0.00  0.00    +0.224 C 
ATOM     12  O   PHE A   1      77.868  53.089 178.413  0.00  0.00    -0.287 OA
ENDBRANCH   8  11
ENDBRANCH   1   8
TORSDOF 4
REMARK  Name = ../refined-set-2016/3f6e/3f6e_pocket.pdb
REMARK  293 active torsions:
REMARK  status: ('A' for Active; 'I' for Inactive)
REMARK    1  A    between atoms: _1  and  _3
REMARK    2  A    between atoms: _3  and  _4
REMARK    3  A    between atoms: _3  and  _6
REMARK    4  A    between atoms: _6  and  _7
REMARK    5  A    between atoms: _13  and  _14
REMARK    6  A    between atoms: _19  and  _21
REMARK    7  A    between atoms: _21  and  _22
REMARK    8  A    between atoms: _24  and  _26
REMARK    9  A    between atoms: _26  and  _27
REMARK   10  A    between atoms: _26  and  _29
REMARK   11  A    between atoms: _29  and  _30
REMARK   12  A    between atoms: _32  and  _34
REMARK   13  A    between atoms: _34  and  _35
REMARK   14  A    between atoms: _34  and  _37
REMARK   15  A    between atoms: _37  and  _38
REMARK   16  A    between atoms: _43  and  _45
REMARK   17  A    between atoms: _45  and  _46
REMARK   18  A    between atoms: _45  and  _48
REMARK   19  A    between atoms: _48  and  _49
REMARK   20  A    between atoms: _49  and  _50
REMARK   21  A    between atoms: _53  and  _55
REMARK   22  A    between atoms: _55  and  _56
REMARK   23  A    between atoms: _55  and  _58
REMARK   24  A    between atoms: _58  and  _59
REMARK   25  A    between atoms: _62  and  _64
REMARK   26  A    between atoms: _64  and  _65
REMARK   27  A    between atoms: _64  and  _67
REMARK   28  A    between atoms: _67  and  _68
REMARK   29  A    between atoms: _71  and  _73
REMARK   30  A    between atoms: _73  and  _74
REMARK   31  A    between atoms: _77  and  _79
REMARK   32  A    between atoms: _79  and  _80
REMARK   33  A    between atoms: _79  and  _82
REMARK   34  A    between atoms: _82  and  _83
REMARK   35  A    between atoms: _86  and  _88
REMARK   36  A    between atoms: _88  and  _89
REMARK   37  A    between atoms: _88  and  _91
REMARK   38  A    between atoms: _91  and  _92
REMARK   39  A    between atoms: _92  and  _93
REMARK   40  A    between atoms: _98  and  _100
REMARK   41  A    between atoms: _100  and  _101
REMARK   42  A    between atoms: _100  and  _103
REMARK   43  A    between atoms: _103  and  _104
REMARK   44  A    between atoms: _104  and  _105
REMARK   45  A    between atoms: _108  and  _110
REMARK   46  A    between atoms: _110  and  _111
REMARK   47  A    between atoms: _114  and  _116
REMARK   48  A    between atoms: _116  and  _117
REMARK   49  A    between atoms: _116  and  _119
REMARK   50  A    between atoms: _119  and  _120
REMARK   51  A    between atoms: _123  and  _125
REMARK   52  A    between atoms: _125  and  _126
REMARK   53  A    between atoms: _125  and  _128
REMARK   54  A    between atoms: _128  and  _129
REMARK   55  A    between atoms: _134  and  _136
REMARK   56  A    between atoms: _136  and  _137
REMARK   57  A    between atoms: _136  and  _139
REMARK   58  A    between atoms: _139  and  _140
REMARK   59  A    between atoms: _142  and  _144
REMARK   60  A    between atoms: _144  and  _145
REMARK   61  A    between atoms: _148  and  _150
REMARK   62  A    between atoms: _150  and  _151
REMARK   63  A    between atoms: _154  and  _156
REMARK   64  A    between atoms: _156  and  _157
REMARK   65  A    between atoms: _159  and  _161
REMARK   66  A    between atoms: _161  and  _162
REMARK   67  A    between atoms: _161  and  _164
REMARK   68  A    between atoms: _164  and  _165
REMARK   69  A    between atoms: _168  and  _170
REMARK   70  A    between atoms: _170  and  _171
REMARK   71  A    between atoms: _173  and  _175
REMARK   72  A    between atoms: _175  and  _176
REMARK   73  A    between atoms: _175  and  _178
REMARK   74  A    between atoms: _178  and  _179
REMARK   75  A    between atoms: _184  and  _186
REMARK   76  A    between atoms: _186  and  _187
REMARK   77  A    between atoms: _190  and  _192
REMARK   78  A    between atoms: _192  and  _193
REMARK   79  A    between atoms: _192  and  _195
REMARK   80  A    between atoms: _195  and  _196
REMARK   81  A    between atoms: _196  and  _197
REMARK   82  A    between atoms: _202  and  _204
REMARK   83  A    between atoms: _204  and  _205
REMARK   84  A    between atoms: _204  and  _207
REMARK   85  A    between atoms: _207  and  _208
REMARK   86  A    between atoms: _211  and  _213
REMARK   87  A    between atoms: _213  and  _214
REMARK   88  A    between atoms: _213  and  _216
REMARK   89  A    between atoms: _216  and  _217
REMARK   90  A    between atoms: _220  and  _222
REMARK   91  A    between atoms: _222  and  _223
REMARK   92  A    between atoms: _225  and  _227
REMARK   93  A    between atoms: _227  and  _228
REMARK   94  A    between atoms: _231  and  _233
REMARK   95  A    between atoms: _233  and  _234
REMARK   96  A    between atoms: _233  and  _236
REMARK   97  A    between atoms: _236  and  _237
REMARK   98  A    between atoms: _239  and  _241
REMARK   99  A    between atoms: _241  and  _242
REMARK  100  A    between atoms: _241  and  _244
REMARK  101  A    between atoms: _244  and  _245
REMARK  102  A    between atoms: _250  and  _252
REMARK  103  A    between atoms: _252  and  _253
REMARK  104  A    between atoms: _252  and  _255
REMARK  105  A    between atoms: _255  and  _256
REMARK  106  A    between atoms: _258  and  _260
REMARK  107  A    between atoms: _260  and  _261
REMARK  108  A    between atoms: _264  and  _266
REMARK  109  A    between atoms: _266  and  _267
REMARK  110  A    between atoms: _270  and  _272
REMARK  111  A    between atoms: _272  and  _273
REMARK  112  A    between atoms: _272  and  _275
REMARK  113  A    between atoms: _275  and  _276
REMARK  114  A    between atoms: _276  and  _277
REMARK  115  A    between atoms: _277  and  _278
REMARK  116  A    between atoms: _287  and  _289
REMARK  117  A    between atoms: _289  and  _290
REMARK  118  A    between atoms: _289  and  _292
REMARK  119  A    between atoms: _292  and  _293
REMARK  120  A    between atoms: _298  and  _299
REMARK  121  A    between atoms: _301  and  _303
REMARK  122  A    between atoms: _303  and  _304
REMARK  123  A    between atoms: _303  and  _306
REMARK  124  A    between atoms: _306  and  _307
REMARK  125  A    between atoms: _312  and  _314
REMARK  126  A    between atoms: _314  and  _315
REMARK  127  A    between atoms: _314  and  _317
REMARK  128  A    between atoms: _317  and  _318
REMARK  129  A    between atoms: _318  and  _319
REMARK  130  A    between atoms: _325  and  _326
REMARK  131  A    between atoms: _331  and  _333
REMARK  132  A    between atoms: _333  and  _334
REMARK  133  A    between atoms: _333  and  _336
REMARK  134  A    between atoms: _336  and  _337
REMARK  135  A    between atoms: _342  and  _344
REMARK  136  A    between atoms: _344  and  _345
REMARK  137  A    between atoms: _344  and  _347
REMARK  138  A    between atoms: _347  and  _348
REMARK  139  A    between atoms: _348  and  _349
REMARK  140  A    between atoms: _352  and  _354
REMARK  141  A    between atoms: _354  and  _355
REMARK  142  A    between atoms: _354  and  _357
REMARK  143  A    between atoms: _357  and  _358
REMARK  144  A    between atoms: _360  and  _362
REMARK  145  A    between atoms: _362  and  _363
REMARK  146  A    between atoms: _362  and  _365
REMARK  147  A    between atoms: _365  and  _366
REMARK  148  A    between atoms: _369  and  _371
REMARK  149  A    between atoms: _371  and  _372
REMARK  150  A    between atoms: _371  and  _374
REMARK  151  A    between atoms: _374  and  _375
REMARK  152  A    between atoms: _377  and  _379
REMARK  153  A    between atoms: _379  and  _380
REMARK  154  A    between atoms: _379  and  _382
REMARK  155  A    between atoms: _382  and  _383
REMARK  156  A    between atoms: _386  and  _388
REMARK  157  A    between atoms: _388  and  _389
REMARK  158  A    between atoms: _388  and  _391
REMARK  159  A    between atoms: _391  and  _392
REMARK  160  A    between atoms: _395  and  _397
REMARK  161  A    between atoms: _397  and  _398
REMARK  162  A    between atoms: _397  and  _400
REMARK  163  A    between atoms: _400  and  _401
REMARK  164  A    between atoms: _401  and  _402
REMARK  165  A    between atoms: _407  and  _409
REMARK  166  A    between atoms: _409  and  _410
REMARK  167  A    between atoms: _409  and  _412
REMARK  168  A    between atoms: _412  and  _413
REMARK  169  A    between atoms: _419  and  _421
REMARK  170  A    between atoms: _421  and  _422
REMARK  171  A    between atoms: _421  and  _424
REMARK  172  A    between atoms: _426  and  _428
REMARK  173  A    between atoms: _428  and  _429
REMARK  174  A    between atoms: _432  and  _434
REMARK  175  A    between atoms: _434  and  _435
REMARK  176  A    between atoms: _437  and  _439
REMARK  177  A    between atoms: _439  and  _440
REMARK  178  A    between atoms: _442  and  _444
REMARK  179  A    between atoms: _444  and  _445
REMARK  180  A    between atoms: _444  and  _447
REMARK  181  A    between atoms: _447  and  _448
REMARK  182  A    between atoms: _451  and  _453
REMARK  183  A    between atoms: _453  and  _454
REMARK  184  A    between atoms: _456  and  _458
REMARK  185  A    between atoms: _458  and  _459
REMARK  186  A    between atoms: _458  and  _461
REMARK  187  A    between atoms: _461  and  _462
REMARK  188  A    between atoms: _468  and  _470
REMARK  189  A    between atoms: _470  and  _471
REMARK  190  A    between atoms: _470  and  _473
REMARK  191  A    between atoms: _476  and  _478
REMARK  192  A    between atoms: _478  and  _479
REMARK  193  A    between atoms: _478  and  _481
REMARK  194  A    between atoms: _481  and  _482
REMARK  195  A    between atoms: _485  and  _487
REMARK  196  A    between atoms: _487  and  _488
REMARK  197  A    between atoms: _490  and  _492
REMARK  198  A    between atoms: _492  and  _493
REMARK  199  A    between atoms: _492  and  _495
REMARK  200  A    between atoms: _495  and  _496
REMARK  201  A    between atoms: _496  and  _497
REMARK  202  A    between atoms: _497  and  MG_734
REMARK  203  A    between atoms: _499  and  _501
REMARK  204  A    between atoms: _501  and  _502
REMARK  205  A    between atoms: _504  and  _506
REMARK  206  A    between atoms: _506  and  _507
REMARK  207  A    between atoms: _506  and  _509
REMARK  208  A    between atoms: _509  and  _510
REMARK  209  A    between atoms: _512  and  _514
REMARK  210  A    between atoms: _514  and  _515
REMARK  211  A    between atoms: _518  and  _520
REMARK  212  A    between atoms: _520  and  _521
REMARK  213  A    between atoms: _520  and  _523
REMARK  214  A    between atoms: _523  and  _524
REMARK  215  A    between atoms: _529  and  _531
REMARK  216  A    between atoms: _531  and  _532
REMARK  217  A    between atoms: _531  and  _534
REMARK  218  A    between atoms: _534  and  _535
REMARK  219  A    between atoms: _540  and  _541
REMARK  220  A    between atoms: _543  and  _545
REMARK  221  A    between atoms: _545  and  _546
REMARK  222  A    between atoms: _545  and  _548
REMARK  223  A    between atoms: _548  and  _549
REMARK  224  A    between atoms: _552  and  _554
REMARK  225  A    between atoms: _554  and  _555
REMARK  226  A    between atoms: _554  and  _557
REMARK  227  A    between atoms: _557  and  _558
REMARK  228  A    between atoms: _558  and  _559
REMARK  229  A    between atoms: _561  and  _563
REMARK  230  A    between atoms: _563  and  _564
REMARK  231  A    between atoms: _563  and  _566
REMARK  232  A    between atoms: _566  and  _567
REMARK  233  A    between atoms: _572  and  _574
REMARK  234  A    between atoms: _574  and  _575
REMARK  235  A    between atoms: _574  and  _577
REMARK  236  A    between atoms: _577  and  _578
REMARK  237  A    between atoms: _583  and  _585
REMARK  238  A    between atoms: _585  and  _586
REMARK  239  A    between atoms: _588  and  _590
REMARK  240  A    between atoms: _590  and  _591
REMARK  241  A    between atoms: _590  and  _593
REMARK  242  A    between atoms: _591  and  _592
REMARK  243  A    between atoms: _591  and  _597
REMARK  244  A    between atoms: _592  and  MG_734
REMARK  245  A    between atoms: _593  and  _594
REMARK  246  A    between atoms: _597  and  _599
REMARK  247  A    between atoms: _599  and  _600
REMARK  248  A    between atoms: _599  and  _602
REMARK  249  A    between atoms: _602  and  _603
REMARK  250  A    between atoms: _608  and  _609
REMARK  251  A    between atoms: _611  and  _613
REMARK  252  A    between atoms: _613  and  _614
REMARK  253  A    between atoms: _616  and  _618
REMARK  254  A    between atoms: _618  and  _619
REMARK  255  A    between atoms: _622  and  _624
REMARK  256  A    between atoms: _624  and  _625
REMARK  257  A    between atoms: _624  and  _627
REMARK  258  A    between atoms: _627  and  _628
REMARK  259  A    between atoms: _631  and  _633
REMARK  260  A    between atoms: _633  and  _634
REMARK  261  A    between atoms: _633  and  _636
REMARK  262  A    between atoms: _636  and  _637
REMARK  263  A    between atoms: _637  and  _638
REMARK  264  A    between atoms: _638  and  _639
REMARK  265  A    between atoms: _648  and  _650
REMARK  266  A    between atoms: _650  and  _651
REMARK  267  A    between atoms: _650  and  _653
REMARK  268  A    between atoms: _653  and  _654
REMARK  269  A    between atoms: _664  and  _666
REMARK  270  A    between atoms: _666  and  _667
REMARK  271  A    between atoms: _666  and  _669
REMARK  272  A    between atoms: _669  and  _670
REMARK  273  A    between atoms: _676  and  _678
REMARK  274  A    between atoms: _678  and  _679
REMARK  275  A    between atoms: _681  and  _683
REMARK  276  A    between atoms: _683  and  _684
REMARK  277  A    between atoms: _683  and  _686
REMARK  278  A    between atoms: _686  and  _687
REMARK  279  A    between atoms: _690  and  _692
REMARK  280  A    between atoms: _692  and  _693
REMARK  281  A    between atoms: _692  and  _695
REMARK  282  A    between atoms: _698  and  _700
REMARK  283  A    between atoms: _700  and  _701
REMARK  284  A    between atoms: _700  and  _703
REMARK  285  A    between atoms: _703  and  _704
REMARK  286  A    between atoms: _710  and  _712
REMARK  287  A    between atoms: _712  and  _713
REMARK  288  A    between atoms: _712  and  _715
REMARK  289  A    between atoms: _715  and  _716
REMARK  290  A    between atoms: _719  and  _721
REMARK  291  A    between atoms: _721  and  _722
REMARK  292  A    between atoms: _721  and  _724
REMARK  293  A    between atoms: _728  and  _729
REMARK                            x       y       z     vdW  Elec       q    Type
REMARK                         _______ _______ _______ _____ _____    ______ ____
ROOT
ATOM      1  C   THR A   1      62.363  57.597 177.715  0.00  0.00    +0.241 C 
ATOM      2  O   THR A   1      62.310  56.367 177.788  0.00  0.00    -0.274 OA
ATOM      3  N   VAL A   2      61.295  58.353 177.474  0.00  0.00    -0.298 N 
ATOM      4  H   VAL A   2      61.388  59.375 177.305  0.00  0.00    +0.150 HD
ENDROOT
BRANCH   1   5
ATOM      5  CA  THR A   1      63.644  58.351 177.794  0.00  0.00    +0.172 C 
BRANCH   5   6
ATOM      6  N   THR A   1      64.665  57.586 178.470  0.00  0.00    -0.236 NA
ATOM      7  H   THR A   1      65.144  56.809 177.972  0.00  0.00    +0.142 HD
ENDBRANCH   5   6
BRANCH   5   8
ATOM      8  CB  THR A   1      64.075  58.877 176.395  0.00  0.00    +0.135 C 
ATOM      9  CG2 THR A   1      65.278  59.735 176.578  0.00  0.00    +0.034 C 
BRANCH   8  10
ATOM     10  OG1 THR A   1      64.462  57.764 175.566  0.00  0.00    -0.383 OA
ATOM     11  HG1 THR A   1      64.737  58.097 174.675  0.00  0.00    +0.210 HD
ENDBRANCH   8  10
ENDBRANCH   5   8
ENDBRANCH   1   5
BRANCH   3  12
ATOM     12  CA  VAL A   2      59.982  57.698 177.455  0.00  0.00    +0.137 C 
BRANCH  12  13
ATOM     13  CB  VAL A   2      58.821  58.668 177.461  0.00  0.00    +0.026 C 
ATOM     14  CG2 VAL A   2      58.759  59.471 178.810  0.00  0.00    +0.002 C 
ATOM     15  CG1 VAL A   2      58.786  59.580 176.207  0.00  0.00    +0.002 C 
ENDBRANCH  12  13
BRANCH  12  16
ATOM     16  C   VAL A   2      59.836  56.726 176.265  0.00  0.00    +0.227 C 
ATOM     17  O   VAL A   2      60.278  57.052 175.160  0.00  0.00    -0.286 OA
ENDBRANCH  12  16
ENDBRANCH   3  12
TORSDOF 7
REMARK  Name = ../refined-set-2016/3f6e/3f6e_pocket.pdb
REMARK  293 active torsions:
REMARK  status: ('A' for Active; 'I' for Inactive)
REMARK    1  A    between atoms: _1  and  _3
REMARK    2  A    between atoms: _3  and  _4
REMARK    3  A    between atoms: _3  and  _6
REMARK    4  A    between atoms: _6  and  _7
REMARK    5  A    between atoms: _13  and  _14
REMARK    6  A    between atoms: _19  and  _21
REMARK    7  A    between atoms: _21  and  _22
REMARK    8  A    between atoms: _24  and  _26
REMARK    9  A    between atoms: _26  and  _27
REMARK   10  A    between atoms: _26  and  _29
REMARK   11  A    between atoms: _29  and  _30
REMARK   12  A    between atoms: _32  and  _34
REMARK   13  A    between atoms: _34  and  _35
REMARK   14  A    between atoms: _34  and  _37
REMARK   15  A    between atoms: _37  and  _38
REMARK   16  A    between atoms: _43  and  _45
REMARK   17  A    between atoms: _45  and  _46
REMARK   18  A    between atoms: _45  and  _48
REMARK   19  A    between atoms: _48  and  _49
REMARK   20  A    between atoms: _49  and  _50
REMARK   21  A    between atoms: _53  and  _55
REMARK   22  A    between atoms: _55  and  _56
REMARK   23  A    between atoms: _55  and  _58
REMARK   24  A    between atoms: _58  and  _59
REMARK   25  A    between atoms: _62  and  _64
REMARK   26  A    between atoms: _64  and  _65
REMARK   27  A    between atoms: _64  and  _67
REMARK   28  A    between atoms: _67  and  _68
REMARK   29  A    between atoms: _71  and  _73
REMARK   30  A    between atoms: _73  and  _74
REMARK   31  A    between atoms: _77  and  _79
REMARK   32  A    between atoms: _79  and  _80
REMARK   33  A    between atoms: _79  and  _82
REMARK   34  A    between atoms: _82  and  _83
REMARK   35  A    between atoms: _86  and  _88
REMARK   36  A    between atoms: _88  and  _89
REMARK   37  A    between atoms: _88  and  _91
REMARK   38  A    between atoms: _91  and  _92
REMARK   39  A    between atoms: _92  and  _93
REMARK   40  A    between atoms: _98  and  _100
REMARK   41  A    between atoms: _100  and  _101
REMARK   42  A    between atoms: _100  and  _103
REMARK   43  A    between atoms: _103  and  _104
REMARK   44  A    between atoms: _104  and  _105
REMARK   45  A    between atoms: _108  and  _110
REMARK   46  A    between atoms: _110  and  _111
REMARK   47  A    between atoms: _114  and  _116
REMARK   48  A    between atoms: _116  and  _117
REMARK   49  A    between atoms: _116  and  _119
REMARK   50  A    between atoms: _119  and  _120
REMARK   51  A    between atoms: _123  and  _125
REMARK   52  A    between atoms: _125  and  _126
REMARK   53  A    between atoms: _125  and  _128
REMARK   54  A    between atoms: _128  and  _129
REMARK   55  A    between atoms: _134  and  _136
REMARK   56  A    between atoms: _136  and  _137
REMARK   57  A    between atoms: _136  and  _139
REMARK   58  A    between atoms: _139  and  _140
REMARK   59  A    between atoms: _142  and  _144
REMARK   60  A    between atoms: _144  and  _145
REMARK   61  A    between atoms: _148  and  _150
REMARK   62  A    between atoms: _150  and  _151
REMARK   63  A    between atoms: _154  and  _156
REMARK   64  A    between atoms: _156  and  _157
REMARK   65  A    between atoms: _159  and  _161
REMARK   66  A    between atoms: _161  and  _162
REMARK   67  A    between atoms: _161  and  _164
REMARK   68  A    between atoms: _164  and  _165
REMARK   69  A    between atoms: _168  and  _170
REMARK   70  A    between atoms: _170  and  _171
REMARK   71  A    between atoms: _173  and  _175
REMARK   72  A    between atoms: _175  and  _176
REMARK   73  A    between atoms: _175  and  _178
REMARK   74  A    between atoms: _178  and  _179
REMARK   75  A    between atoms: _184  and  _186
REMARK   76  A    between atoms: _186  and  _187
REMARK   77  A    between atoms: _190  and  _192
REMARK   78  A    between atoms: _192  and  _193
REMARK   79  A    between atoms: _192  and  _195
REMARK   80  A    between atoms: _195  and  _196
REMARK   81  A    between atoms: _196  and  _197
REMARK   82  A    between atoms: _202  and  _204
REMARK   83  A    between atoms: _204  and  _205
REMARK   84  A    between atoms: _204  and  _207
REMARK   85  A    between atoms: _207  and  _208
REMARK   86  A    between atoms: _211  and  _213
REMARK   87  A    between atoms: _213  and  _214
REMARK   88  A    between atoms: _213  and  _216
REMARK   89  A    between atoms: _216  and  _217
REMARK   90  A    between atoms: _220  and  _222
REMARK   91  A    between atoms: _222  and  _223
REMARK   92  A    between atoms: _225  and  _227
REMARK   93  A    between atoms: _227  and  _228
REMARK   94  A    between atoms: _231  and  _233
REMARK   95  A    between atoms: _233  and  _234
REMARK   96  A    between atoms: _233  and  _236
REMARK   97  A    between atoms: _236  and  _237
REMARK   98  A    between atoms: _239  and  _241
REMARK   99  A    between atoms: _241  and  _242
REMARK  100  A    between atoms: _241  and  _244
REMARK  101  A    between atoms: _244  and  _245
REMARK  102  A    between atoms: _250  and  _252
REMARK  103  A    between atoms: _252  and  _253
REMARK  104  A    between atoms: _252  and  _255
REMARK  105  A    between atoms: _255  and  _256
REMARK  106  A    between atoms: _258  and  _260
REMARK  107  A    between atoms: _260  and  _261
REMARK  108  A    between atoms: _264  and  _266
REMARK  109  A    between atoms: _266  and  _267
REMARK  110  A    between atoms: _270  and  _272
REMARK  111  A    between atoms: _272  and  _273
REMARK  112  A    between atoms: _272  and  _275
REMARK  113  A    between atoms: _275  and  _276
REMARK  114  A    between atoms: _276  and  _277
REMARK  115  A    between atoms: _277  and  _278
REMARK  116  A    between atoms: _287  and  _289
REMARK  117  A    between atoms: _289  and  _290
REMARK  118  A    between atoms: _289  and  _292
REMARK  119  A    between atoms: _292  and  _293
REMARK  120  A    between atoms: _298  and  _299
REMARK  121  A    between atoms: _301  and  _303
REMARK  122  A    between atoms: _303  and  _304
REMARK  123  A    between atoms: _303  and  _306
REMARK  124  A    between atoms: _306  and  _307
REMARK  125  A    between atoms: _312  and  _314
REMARK  126  A    between atoms: _314  and  _315
REMARK  127  A    between atoms: _314  and  _317
REMARK  128  A    between atoms: _317  and  _318
REMARK  129  A    between atoms: _318  and  _319
REMARK  130  A    between atoms: _325  and  _326
REMARK  131  A    between atoms: _331  and  _333
REMARK  132  A    between atoms: _333  and  _334
REMARK  133  A    between atoms: _333  and  _336
REMARK  134  A    between atoms: _336  and  _337
REMARK  135  A    between atoms: _342  and  _344
REMARK  136  A    between atoms: _344  and  _345
REMARK  137  A    between atoms: _344  and  _347
REMARK  138  A    between atoms: _347  and  _348
REMARK  139  A    between atoms: _348  and  _349
REMARK  140  A    between atoms: _352  and  _354
REMARK  141  A    between atoms: _354  and  _355
REMARK  142  A    between atoms: _354  and  _357
REMARK  143  A    between atoms: _357  and  _358
REMARK  144  A    between atoms: _360  and  _362
REMARK  145  A    between atoms: _362  and  _363
REMARK  146  A    between atoms: _362  and  _365
REMARK  147  A    between atoms: _365  and  _366
REMARK  148  A    between atoms: _369  and  _371
REMARK  149  A    between atoms: _371  and  _372
REMARK  150  A    between atoms: _371  and  _374
REMARK  151  A    between atoms: _374  and  _375
REMARK  152  A    between atoms: _377  and  _379
REMARK  153  A    between atoms: _379  and  _380
REMARK  154  A    between atoms: _379  and  _382
REMARK  155  A    between atoms: _382  and  _383
REMARK  156  A    between atoms: _386  and  _388
REMARK  157  A    between atoms: _388  and  _389
REMARK  158  A    between atoms: _388  and  _391
REMARK  159  A    between atoms: _391  and  _392
REMARK  160  A    between atoms: _395  and  _397
REMARK  161  A    between atoms: _397  and  _398
REMARK  162  A    between atoms: _397  and  _400
REMARK  163  A    between atoms: _400  and  _401
REMARK  164  A    between atoms: _401  and  _402
REMARK  165  A    between atoms: _407  and  _409
REMARK  166  A    between atoms: _409  and  _410
REMARK  167  A    between atoms: _409  and  _412
REMARK  168  A    between atoms: _412  and  _413
REMARK  169  A    between atoms: _419  and  _421
REMARK  170  A    between atoms: _421  and  _422
REMARK  171  A    between atoms: _421  and  _424
REMARK  172  A    between atoms: _426  and  _428
REMARK  173  A    between atoms: _428  and  _429
REMARK  174  A    between atoms: _432  and  _434
REMARK  175  A    between atoms: _434  and  _435
REMARK  176  A    between atoms: _437  and  _439
REMARK  177  A    between atoms: _439  and  _440
REMARK  178  A    between atoms: _442  and  _444
REMARK  179  A    between atoms: _444  and  _445
REMARK  180  A    between atoms: _444  and  _447
REMARK  181  A    between atoms: _447  and  _448
REMARK  182  A    between atoms: _451  and  _453
REMARK  183  A    between atoms: _453  and  _454
REMARK  184  A    between atoms: _456  and  _458
REMARK  185  A    between atoms: _458  and  _459
REMARK  186  A    between atoms: _458  and  _461
REMARK  187  A    between atoms: _461  and  _462
REMARK  188  A    between atoms: _468  and  _470
REMARK  189  A    between atoms: _470  and  _471
REMARK  190  A    between atoms: _470  and  _473
REMARK  191  A    between atoms: _476  and  _478
REMARK  192  A    between atoms: _478  and  _479
REMARK  193  A    between atoms: _478  and  _481
REMARK  194  A    between atoms: _481  and  _482
REMARK  195  A    between atoms: _485  and  _487
REMARK  196  A    between atoms: _487  and  _488
REMARK  197  A    between atoms: _490  and  _492
REMARK  198  A    between atoms: _492  and  _493
REMARK  199  A    between atoms: _492  and  _495
REMARK  200  A    between atoms: _495  and  _496
REMARK  201  A    between atoms: _496  and  _497
REMARK  202  A    between atoms: _497  and  MG_734
REMARK  203  A    between atoms: _499  and  _501
REMARK  204  A    between atoms: _501  and  _502
REMARK  205  A    between atoms: _504  and  _506
REMARK  206  A    between atoms: _506  and  _507
REMARK  207  A    between atoms: _506  and  _509
REMARK  208  A    between atoms: _509  and  _510
REMARK  209  A    between atoms: _512  and  _514
REMARK  210  A    between atoms: _514  and  _515
REMARK  211  A    between atoms: _518  and  _520
REMARK  212  A    between atoms: _520  and  _521
REMARK  213  A    between atoms: _520  and  _523
REMARK  214  A    between atoms: _523  and  _524
REMARK  215  A    between atoms: _529  and  _531
REMARK  216  A    between atoms: _531  and  _532
REMARK  217  A    between atoms: _531  and  _534
REMARK  218  A    between atoms: _534  and  _535
REMARK  219  A    between atoms: _540  and  _541
REMARK  220  A    between atoms: _543  and  _545
REMARK  221  A    between atoms: _545  and  _546
REMARK  222  A    between atoms: _545  and  _548
REMARK  223  A    between atoms: _548  and  _549
REMARK  224  A    between atoms: _552  and  _554
REMARK  225  A    between atoms: _554  and  _555
REMARK  226  A    between atoms: _554  and  _557
REMARK  227  A    between atoms: _557  and  _558
REMARK  228  A    between atoms: _558  and  _559
REMARK  229  A    between atoms: _561  and  _563
REMARK  230  A    between atoms: _563  and  _564
REMARK  231  A    between atoms: _563  and  _566
REMARK  232  A    between atoms: _566  and  _567
REMARK  233  A    between atoms: _572  and  _574
REMARK  234  A    between atoms: _574  and  _575
REMARK  235  A    between atoms: _574  and  _577
REMARK  236  A    between atoms: _577  and  _578
REMARK  237  A    between atoms: _583  and  _585
REMARK  238  A    between atoms: _585  and  _586
REMARK  239  A    between atoms: _588  and  _590
REMARK  240  A    between atoms: _590  and  _591
REMARK  241  A    between atoms: _590  and  _593
REMARK  242  A    between atoms: _591  and  _592
REMARK  243  A    between atoms: _591  and  _597
REMARK  244  A    between atoms: _592  and  MG_734
REMARK  245  A    between atoms: _593  and  _594
REMARK  246  A    between atoms: _597  and  _599
REMARK  247  A    between atoms: _599  and  _600
REMARK  248  A    between atoms: _599  and  _602
REMARK  249  A    between atoms: _602  and  _603
REMARK  250  A    between atoms: _608  and  _609
REMARK  251  A    between atoms: _611  and  _613
REMARK  252  A    between atoms: _613  and  _614
REMARK  253  A    between atoms: _616  and  _618
REMARK  254  A    between atoms: _618  and  _619
REMARK  255  A    between atoms: _622  and  _624
REMARK  256  A    between atoms: _624  and  _625
REMARK  257  A    between atoms: _624  and  _627
REMARK  258  A    between atoms: _627  and  _628
REMARK  259  A    between atoms: _631  and  _633
REMARK  260  A    between atoms: _633  and  _634
REMARK  261  A    between atoms: _633  and  _636
REMARK  262  A    between atoms: _636  and  _637
REMARK  263  A    between atoms: _637  and  _638
REMARK  264  A    between atoms: _638  and  _639
REMARK  265  A    between atoms: _648  and  _650
REMARK  266  A    between atoms: _650  and  _651
REMARK  267  A    between atoms: _650  and  _653
REMARK  268  A    between atoms: _653  and  _654
REMARK  269  A    between atoms: _664  and  _666
REMARK  270  A    between atoms: _666  and  _667
REMARK  271  A    between atoms: _666  and  _669
REMARK  272  A    between atoms: _669  and  _670
REMARK  273  A    between atoms: _676  and  _678
REMARK  274  A    between atoms: _678  and  _679
REMARK  275  A    between atoms: _681  and  _683
REMARK  276  A    between atoms: _683  and  _684
REMARK  277  A    between atoms: _683  and  _686
REMARK  278  A    between atoms: _686  and  _687
REMARK  279  A    between atoms: _690  and  _692
REMARK  280  A    between atoms: _692  and  _693
REMARK  281  A    between atoms: _692  and  _695
REMARK  282  A    between atoms: _698  and  _700
REMARK  283  A    between atoms: _700  and  _701
REMARK  284  A    between atoms: _700  and  _703
REMARK  285  A    between atoms: _703  and  _704
REMARK  286  A    between atoms: _710  and  _712
REMARK  287  A    between atoms: _712  and  _713
REMARK  288  A    between atoms: _712  and  _715
REMARK  289  A    between atoms: _715  and  _716
REMARK  290  A    between atoms: _719  and  _721
REMARK  291  A    between atoms: _721  and  _722
REMARK  292  A    between atoms: _721  and  _724
REMARK  293  A    between atoms: _728  and  _729
REMARK                            x       y       z     vdW  Elec       q    Type
REMARK                         _______ _______ _______ _____ _____    ______ ____
ROOT
ATOM      1  N   PRO A   1      58.137  54.904 173.161  0.00  0.00    -0.212 NA
ATOM      2  CD  PRO A   1      59.312  54.412 172.408  0.00  0.00    +0.089 C 
ATOM      3  CG  PRO A   1      58.802  54.275 170.976  0.00  0.00    +0.021 C 
ATOM      4  CB  PRO A   1      57.678  55.259 170.889  0.00  0.00    +0.027 C 
ATOM      5  CA  PRO A   1      57.019  55.207 172.278  0.00  0.00    +0.137 C 
ENDROOT
BRANCH   5   6
ATOM      6  C   PRO A   1      55.959  54.087 172.359  0.00  0.00    +0.224 C 
ATOM      7  O   PRO A   1      54.752  54.359 172.213  0.00  0.00    -0.287 OA
ENDBRANCH   5   6
TORSDOF 1
REMARK  Name = ../refined-set-2016/3f6e/3f6e_pocket.pdb
REMARK  293 active torsions:
REMARK  status: ('A' for Active; 'I' for Inactive)
REMARK    1  A    between atoms: _1  and  _3
REMARK    2  A    between atoms: _3  and  _4
REMARK    3  A    between atoms: _3  and  _6
REMARK    4  A    between atoms: _6  and  _7
REMARK    5  A    between atoms: _13  and  _14
REMARK    6  A    between atoms: _19  and  _21
REMARK    7  A    between atoms: _21  and  _22
REMARK    8  A    between atoms: _24  and  _26
REMARK    9  A    between atoms: _26  and  _27
REMARK   10  A    between atoms: _26  and  _29
REMARK   11  A    between atoms: _29  and  _30
REMARK   12  A    between atoms: _32  and  _34
REMARK   13  A    between atoms: _34  and  _35
REMARK   14  A    between atoms: _34  and  _37
REMARK   15  A    between atoms: _37  and  _38
REMARK   16  A    between atoms: _43  and  _45
REMARK   17  A    between atoms: _45  and  _46
REMARK   18  A    between atoms: _45  and  _48
REMARK   19  A    between atoms: _48  and  _49
REMARK   20  A    between atoms: _49  and  _50
REMARK   21  A    between atoms: _53  and  _55
REMARK   22  A    between atoms: _55  and  _56
REMARK   23  A    between atoms: _55  and  _58
REMARK   24  A    between atoms: _58  and  _59
REMARK   25  A    between atoms: _62  and  _64
REMARK   26  A    between atoms: _64  and  _65
REMARK   27  A    between atoms: _64  and  _67
REMARK   28  A    between atoms: _67  and  _68
REMARK   29  A    between atoms: _71  and  _73
REMARK   30  A    between atoms: _73  and  _74
REMARK   31  A    between atoms: _77  and  _79
REMARK   32  A    between atoms: _79  and  _80
REMARK   33  A    between atoms: _79  and  _82
REMARK   34  A    between atoms: _82  and  _83
REMARK   35  A    between atoms: _86  and  _88
REMARK   36  A    between atoms: _88  and  _89
REMARK   37  A    between atoms: _88  and  _91
REMARK   38  A    between atoms: _91  and  _92
REMARK   39  A    between atoms: _92  and  _93
REMARK   40  A    between atoms: _98  and  _100
REMARK   41  A    between atoms: _100  and  _101
REMARK   42  A    between atoms: _100  and  _103
REMARK   43  A    between atoms: _103  and  _104
REMARK   44  A    between atoms: _104  and  _105
REMARK   45  A    between atoms: _108  and  _110
REMARK   46  A    between atoms: _110  and  _111
REMARK   47  A    between atoms: _114  and  _116
REMARK   48  A    between atoms: _116  and  _117
REMARK   49  A    between atoms: _116  and  _119
REMARK   50  A    between atoms: _119  and  _120
REMARK   51  A    between atoms: _123  and  _125
REMARK   52  A    between atoms: _125  and  _126
REMARK   53  A    between atoms: _125  and  _128
REMARK   54  A    between atoms: _128  and  _129
REMARK   55  A    between atoms: _134  and  _136
REMARK   56  A    between atoms: _136  and  _137
REMARK   57  A    between atoms: _136  and  _139
REMARK   58  A    between atoms: _139  and  _140
REMARK   59  A    between atoms: _142  and  _144
REMARK   60  A    between atoms: _144  and  _145
REMARK   61  A    between atoms: _148  and  _150
REMARK   62  A    between atoms: _150  and  _151
REMARK   63  A    between atoms: _154  and  _156
REMARK   64  A    between atoms: _156  and  _157
REMARK   65  A    between atoms: _159  and  _161
REMARK   66  A    between atoms: _161  and  _162
REMARK   67  A    between atoms: _161  and  _164
REMARK   68  A    between atoms: _164  and  _165
REMARK   69  A    between atoms: _168  and  _170
REMARK   70  A    between atoms: _170  and  _171
REMARK   71  A    between atoms: _173  and  _175
REMARK   72  A    between atoms: _175  and  _176
REMARK   73  A    between atoms: _175  and  _178
REMARK   74  A    between atoms: _178  and  _179
REMARK   75  A    between atoms: _184  and  _186
REMARK   76  A    between atoms: _186  and  _187
REMARK   77  A    between atoms: _190  and  _192
REMARK   78  A    between atoms: _192  and  _193
REMARK   79  A    between atoms: _192  and  _195
REMARK   80  A    between atoms: _195  and  _196
REMARK   81  A    between atoms: _196  and  _197
REMARK   82  A    between atoms: _202  and  _204
REMARK   83  A    between atoms: _204  and  _205
REMARK   84  A    between atoms: _204  and  _207
REMARK   85  A    between atoms: _207  and  _208
REMARK   86  A    between atoms: _211  and  _213
REMARK   87  A    between atoms: _213  and  _214
REMARK   88  A    between atoms: _213  and  _216
REMARK   89  A    between atoms: _216  and  _217
REMARK   90  A    between atoms: _220  and  _222
REMARK   91  A    between atoms: _222  and  _223
REMARK   92  A    between atoms: _225  and  _227
REMARK   93  A    between atoms: _227  and  _228
REMARK   94  A    between atoms: _231  and  _233
REMARK   95  A    between atoms: _233  and  _234
REMARK   96  A    between atoms: _233  and  _236
REMARK   97  A    between atoms: _236  and  _237
REMARK   98  A    between atoms: _239  and  _241
REMARK   99  A    between atoms: _241  and  _242
REMARK  100  A    between atoms: _241  and  _244
REMARK  101  A    between atoms: _244  and  _245
REMARK  102  A    between atoms: _250  and  _252
REMARK  103  A    between atoms: _252  and  _253
REMARK  104  A    between atoms: _252  and  _255
REMARK  105  A    between atoms: _255  and  _256
REMARK  106  A    between atoms: _258  and  _260
REMARK  107  A    between atoms: _260  and  _261
REMARK  108  A    between atoms: _264  and  _266
REMARK  109  A    between atoms: _266  and  _267
REMARK  110  A    between atoms: _270  and  _272
REMARK  111  A    between atoms: _272  and  _273
REMARK  112  A    between atoms: _272  and  _275
REMARK  113  A    between atoms: _275  and  _276
REMARK  114  A    between atoms: _276  and  _277
REMARK  115  A    between atoms: _277  and  _278
REMARK  116  A    between atoms: _287  and  _289
REMARK  117  A    between atoms: _289  and  _290
REMARK  118  A    between atoms: _289  and  _292
REMARK  119  A    between atoms: _292  and  _293
REMARK  120  A    between atoms: _298  and  _299
REMARK  121  A    between atoms: _301  and  _303
REMARK  122  A    between atoms: _303  and  _304
REMARK  123  A    between atoms: _303  and  _306
REMARK  124  A    between atoms: _306  and  _307
REMARK  125  A    between atoms: _312  and  _314
REMARK  126  A    between atoms: _314  and  _315
REMARK  127  A    between atoms: _314  and  _317
REMARK  128  A    between atoms: _317  and  _318
REMARK  129  A    between atoms: _318  and  _319
REMARK  130  A    between atoms: _325  and  _326
REMARK  131  A    between atoms: _331  and  _333
REMARK  132  A    between atoms: _333  and  _334
REMARK  133  A    between atoms: _333  and  _336
REMARK  134  A    between atoms: _336  and  _337
REMARK  135  A    between atoms: _342  and  _344
REMARK  136  A    between atoms: _344  and  _345
REMARK  137  A    between atoms: _344  and  _347
REMARK  138  A    between atoms: _347  and  _348
REMARK  139  A    between atoms: _348  and  _349
REMARK  140  A    between atoms: _352  and  _354
REMARK  141  A    between atoms: _354  and  _355
REMARK  142  A    between atoms: _354  and  _357
REMARK  143  A    between atoms: _357  and  _358
REMARK  144  A    between atoms: _360  and  _362
REMARK  145  A    between atoms: _362  and  _363
REMARK  146  A    between atoms: _362  and  _365
REMARK  147  A    between atoms: _365  and  _366
REMARK  148  A    between atoms: _369  and  _371
REMARK  149  A    between atoms: _371  and  _372
REMARK  150  A    between atoms: _371  and  _374
REMARK  151  A    between atoms: _374  and  _375
REMARK  152  A    between atoms: _377  and  _379
REMARK  153  A    between atoms: _379  and  _380
REMARK  154  A    between atoms: _379  and  _382
REMARK  155  A    between atoms: _382  and  _383
REMARK  156  A    between atoms: _386  and  _388
REMARK  157  A    between atoms: _388  and  _389
REMARK  158  A    between atoms: _388  and  _391
REMARK  159  A    between atoms: _391  and  _392
REMARK  160  A    between atoms: _395  and  _397
REMARK  161  A    between atoms: _397  and  _398
REMARK  162  A    between atoms: _397  and  _400
REMARK  163  A    between atoms: _400  and  _401
REMARK  164  A    between atoms: _401  and  _402
REMARK  165  A    between atoms: _407  and  _409
REMARK  166  A    between atoms: _409  and  _410
REMARK  167  A    between atoms: _409  and  _412
REMARK  168  A    between atoms: _412  and  _413
REMARK  169  A    between atoms: _419  and  _421
REMARK  170  A    between atoms: _421  and  _422
REMARK  171  A    between atoms: _421  and  _424
REMARK  172  A    between atoms: _426  and  _428
REMARK  173  A    between atoms: _428  and  _429
REMARK  174  A    between atoms: _432  and  _434
REMARK  175  A    between atoms: _434  and  _435
REMARK  176  A    between atoms: _437  and  _439
REMARK  177  A    between atoms: _439  and  _440
REMARK  178  A    between atoms: _442  and  _444
REMARK  179  A    between atoms: _444  and  _445
REMARK  180  A    between atoms: _444  and  _447
REMARK  181  A    between atoms: _447  and  _448
REMARK  182  A    between atoms: _451  and  _453
REMARK  183  A    between atoms: _453  and  _454
REMARK  184  A    between atoms: _456  and  _458
REMARK  185  A    between atoms: _458  and  _459
REMARK  186  A    between atoms: _458  and  _461
REMARK  187  A    between atoms: _461  and  _462
REMARK  188  A    between atoms: _468  and  _470
REMARK  189  A    between atoms: _470  and  _471
REMARK  190  A    between atoms: _470  and  _473
REMARK  191  A    between atoms: _476  and  _478
REMARK  192  A    between atoms: _478  and  _479
REMARK  193  A    between atoms: _478  and  _481
REMARK  194  A    between atoms: _481  and  _482
REMARK  195  A    between atoms: _485  and  _487
REMARK  196  A    between atoms: _487  and  _488
REMARK  197  A    between atoms: _490  and  _492
REMARK  198  A    between atoms: _492  and  _493
REMARK  199  A    between atoms: _492  and  _495
REMARK  200  A    between atoms: _495  and  _496
REMARK  201  A    between atoms: _496  and  _497
REMARK  202  A    between atoms: _497  and  MG_734
REMARK  203  A    between atoms: _499  and  _501
REMARK  204  A    between atoms: _501  and  _502
REMARK  205  A    between atoms: _504  and  _506
REMARK  206  A    between atoms: _506  and  _507
REMARK  207  A    between atoms: _506  and  _509
REMARK  208  A    between atoms: _509  and  _510
REMARK  209  A    between atoms: _512  and  _514
REMARK  210  A    between atoms: _514  and  _515
REMARK  211  A    between atoms: _518  and  _520
REMARK  212  A    between atoms: _520  and  _521
REMARK  213  A    between atoms: _520  and  _523
REMARK  214  A    between atoms: _523  and  _524
REMARK  215  A    between atoms: _529  and  _531
REMARK  216  A    between atoms: _531  and  _532
REMARK  217  A    between atoms: _531  and  _534
REMARK  218  A    between atoms: _534  and  _535
REMARK  219  A    between atoms: _540  and  _541
REMARK  220  A    between atoms: _543  and  _545
REMARK  221  A    between atoms: _545  and  _546
REMARK  222  A    between atoms: _545  and  _548
REMARK  223  A    between atoms: _548  and  _549
REMARK  224  A    between atoms: _552  and  _554
REMARK  225  A    between atoms: _554  and  _555
REMARK  226  A    between atoms: _554  and  _557
REMARK  227  A    between atoms: _557  and  _558
REMARK  228  A    between atoms: _558  and  _559
REMARK  229  A    between atoms: _561  and  _563
REMARK  230  A    between atoms: _563  and  _564
REMARK  231  A    between atoms: _563  and  _566
REMARK  232  A    between atoms: _566  and  _567
REMARK  233  A    between atoms: _572  and  _574
REMARK  234  A    between atoms: _574  and  _575
REMARK  235  A    between atoms: _574  and  _577
REMARK  236  A    between atoms: _577  and  _578
REMARK  237  A    between atoms: _583  and  _585
REMARK  238  A    between atoms: _585  and  _586
REMARK  239  A    between atoms: _588  and  _590
REMARK  240  A    between atoms: _590  and  _591
REMARK  241  A    between atoms: _590  and  _593
REMARK  242  A    between atoms: _591  and  _592
REMARK  243  A    between atoms: _591  and  _597
REMARK  244  A    between atoms: _592  and  MG_734
REMARK  245  A    between atoms: _593  and  _594
REMARK  246  A    between atoms: _597  and  _599
REMARK  247  A    between atoms: _599  and  _600
REMARK  248  A    between atoms: _599  and  _602
REMARK  249  A    between atoms: _602  and  _603
REMARK  250  A    between atoms: _608  and  _609
REMARK  251  A    between atoms: _611  and  _613
REMARK  252  A    between atoms: _613  and  _614
REMARK  253  A    between atoms: _616  and  _618
REMARK  254  A    between atoms: _618  and  _619
REMARK  255  A    between atoms: _622  and  _624
REMARK  256  A    between atoms: _624  and  _625
REMARK  257  A    between atoms: _624  and  _627
REMARK  258  A    between atoms: _627  and  _628
REMARK  259  A    between atoms: _631  and  _633
REMARK  260  A    between atoms: _633  and  _634
REMARK  261  A    between atoms: _633  and  _636
REMARK  262  A    between atoms: _636  and  _637
REMARK  263  A    between atoms: _637  and  _638
REMARK  264  A    between atoms: _638  and  _639
REMARK  265  A    between atoms: _648  and  _650
REMARK  266  A    between atoms: _650  and  _651
REMARK  267  A    between atoms: _650  and  _653
REMARK  268  A    between atoms: _653  and  _654
REMARK  269  A    between atoms: _664  and  _666
REMARK  270  A    between atoms: _666  and  _667
REMARK  271  A    between atoms: _666  and  _669
REMARK  272  A    between atoms: _669  and  _670
REMARK  273  A    between atoms: _676  and  _678
REMARK  274  A    between atoms: _678  and  _679
REMARK  275  A    between atoms: _681  and  _683
REMARK  276  A    between atoms: _683  and  _684
REMARK  277  A    between atoms: _683  and  _686
REMARK  278  A    between atoms: _686  and  _687
REMARK  279  A    between atoms: _690  and  _692
REMARK  280  A    between atoms: _692  and  _693
REMARK  281  A    between atoms: _692  and  _695
REMARK  282  A    between atoms: _698  and  _700
REMARK  283  A    between atoms: _700  and  _701
REMARK  284  A    between atoms: _700  and  _703
REMARK  285  A    between atoms: _703  and  _704
REMARK  286  A    between atoms: _710  and  _712
REMARK  287  A    between atoms: _712  and  _713
REMARK  288  A    between atoms: _712  and  _715
REMARK  289  A    between atoms: _715  and  _716
REMARK  290  A    between atoms: _719  and  _721
REMARK  291  A    between atoms: _721  and  _722
REMARK  292  A    between atoms: _721  and  _724
REMARK  293  A    between atoms: _728  and  _729
REMARK                            x       y       z     vdW  Elec       q    Type
REMARK                         _______ _______ _______ _____ _____    ______ ____
ROOT
ATOM      1  O   HOH     1      66.221  56.249 171.450  0.00  0.00    +0.000 OA
ENDROOT
TORSDOF 0
REMARK  Name = ../refined-set-2016/3f6e/3f6e_pocket.pdb
REMARK  293 active torsions:
REMARK  status: ('A' for Active; 'I' for Inactive)
REMARK    1  A    between atoms: _1  and  _3
REMARK    2  A    between atoms: _3  and  _4
REMARK    3  A    between atoms: _3  and  _6
REMARK    4  A    between atoms: _6  and  _7
REMARK    5  A    between atoms: _13  and  _14
REMARK    6  A    between atoms: _19  and  _21
REMARK    7  A    between atoms: _21  and  _22
REMARK    8  A    between atoms: _24  and  _26
REMARK    9  A    between atoms: _26  and  _27
REMARK   10  A    between atoms: _26  and  _29
REMARK   11  A    between atoms: _29  and  _30
REMARK   12  A    between atoms: _32  and  _34
REMARK   13  A    between atoms: _34  and  _35
REMARK   14  A    between atoms: _34  and  _37
REMARK   15  A    between atoms: _37  and  _38
REMARK   16  A    between atoms: _43  and  _45
REMARK   17  A    between atoms: _45  and  _46
REMARK   18  A    between atoms: _45  and  _48
REMARK   19  A    between atoms: _48  and  _49
REMARK   20  A    between atoms: _49  and  _50
REMARK   21  A    between atoms: _53  and  _55
REMARK   22  A    between atoms: _55  and  _56
REMARK   23  A    between atoms: _55  and  _58
REMARK   24  A    between atoms: _58  and  _59
REMARK   25  A    between atoms: _62  and  _64
REMARK   26  A    between atoms: _64  and  _65
REMARK   27  A    between atoms: _64  and  _67
REMARK   28  A    between atoms: _67  and  _68
REMARK   29  A    between atoms: _71  and  _73
REMARK   30  A    between atoms: _73  and  _74
REMARK   31  A    between atoms: _77  and  _79
REMARK   32  A    between atoms: _79  and  _80
REMARK   33  A    between atoms: _79  and  _82
REMARK   34  A    between atoms: _82  and  _83
REMARK   35  A    between atoms: _86  and  _88
REMARK   36  A    between atoms: _88  and  _89
REMARK   37  A    between atoms: _88  and  _91
REMARK   38  A    between atoms: _91  and  _92
REMARK   39  A    between atoms: _92  and  _93
REMARK   40  A    between atoms: _98  and  _100
REMARK   41  A    between atoms: _100  and  _101
REMARK   42  A    between atoms: _100  and  _103
REMARK   43  A    between atoms: _103  and  _104
REMARK   44  A    between atoms: _104  and  _105
REMARK   45  A    between atoms: _108  and  _110
REMARK   46  A    between atoms: _110  and  _111
REMARK   47  A    between atoms: _114  and  _116
REMARK   48  A    between atoms: _116  and  _117
REMARK   49  A    between atoms: _116  and  _119
REMARK   50  A    between atoms: _119  and  _120
REMARK   51  A    between atoms: _123  and  _125
REMARK   52  A    between atoms: _125  and  _126
REMARK   53  A    between atoms: _125  and  _128
REMARK   54  A    between atoms: _128  and  _129
REMARK   55  A    between atoms: _134  and  _136
REMARK   56  A    between atoms: _136  and  _137
REMARK   57  A    between atoms: _136  and  _139
REMARK   58  A    between atoms: _139  and  _140
REMARK   59  A    between atoms: _142  and  _144
REMARK   60  A    between atoms: _144  and  _145
REMARK   61  A    between atoms: _148  and  _150
REMARK   62  A    between atoms: _150  and  _151
REMARK   63  A    between atoms: _154  and  _156
REMARK   64  A    between atoms: _156  and  _157
REMARK   65  A    between atoms: _159  and  _161
REMARK   66  A    between atoms: _161  and  _162
REMARK   67  A    between atoms: _161  and  _164
REMARK   68  A    between atoms: _164  and  _165
REMARK   69  A    between atoms: _168  and  _170
REMARK   70  A    between atoms: _170  and  _171
REMARK   71  A    between atoms: _173  and  _175
REMARK   72  A    between atoms: _175  and  _176
REMARK   73  A    between atoms: _175  and  _178
REMARK   74  A    between atoms: _178  and  _179
REMARK   75  A    between atoms: _184  and  _186
REMARK   76  A    between atoms: _186  and  _187
REMARK   77  A    between atoms: _190  and  _192
REMARK   78  A    between atoms: _192  and  _193
REMARK   79  A    between atoms: _192  and  _195
REMARK   80  A    between atoms: _195  and  _196
REMARK   81  A    between atoms: _196  and  _197
REMARK   82  A    between atoms: _202  and  _204
REMARK   83  A    between atoms: _204  and  _205
REMARK   84  A    between atoms: _204  and  _207
REMARK   85  A    between atoms: _207  and  _208
REMARK   86  A    between atoms: _211  and  _213
REMARK   87  A    between atoms: _213  and  _214
REMARK   88  A    between atoms: _213  and  _216
REMARK   89  A    between atoms: _216  and  _217
REMARK   90  A    between atoms: _220  and  _222
REMARK   91  A    between atoms: _222  and  _223
REMARK   92  A    between atoms: _225  and  _227
REMARK   93  A    between atoms: _227  and  _228
REMARK   94  A    between atoms: _231  and  _233
REMARK   95  A    between atoms: _233  and  _234
REMARK   96  A    between atoms: _233  and  _236
REMARK   97  A    between atoms: _236  and  _237
REMARK   98  A    between atoms: _239  and  _241
REMARK   99  A    between atoms: _241  and  _242
REMARK  100  A    between atoms: _241  and  _244
REMARK  101  A    between atoms: _244  and  _245
REMARK  102  A    between atoms: _250  and  _252
REMARK  103  A    between atoms: _252  and  _253
REMARK  104  A    between atoms: _252  and  _255
REMARK  105  A    between atoms: _255  and  _256
REMARK  106  A    between atoms: _258  and  _260
REMARK  107  A    between atoms: _260  and  _261
REMARK  108  A    between atoms: _264  and  _266
REMARK  109  A    between atoms: _266  and  _267
REMARK  110  A    between atoms: _270  and  _272
REMARK  111  A    between atoms: _272  and  _273
REMARK  112  A    between atoms: _272  and  _275
REMARK  113  A    between atoms: _275  and  _276
REMARK  114  A    between atoms: _276  and  _277
REMARK  115  A    between atoms: _277  and  _278
REMARK  116  A    between atoms: _287  and  _289
REMARK  117  A    between atoms: _289  and  _290
REMARK  118  A    between atoms: _289  and  _292
REMARK  119  A    between atoms: _292  and  _293
REMARK  120  A    between atoms: _298  and  _299
REMARK  121  A    between atoms: _301  and  _303
REMARK  122  A    between atoms: _303  and  _304
REMARK  123  A    between atoms: _303  and  _306
REMARK  124  A    between atoms: _306  and  _307
REMARK  125  A    between atoms: _312  and  _314
REMARK  126  A    between atoms: _314  and  _315
REMARK  127  A    between atoms: _314  and  _317
REMARK  128  A    between atoms: _317  and  _318
REMARK  129  A    between atoms: _318  and  _319
REMARK  130  A    between atoms: _325  and  _326
REMARK  131  A    between atoms: _331  and  _333
REMARK  132  A    between atoms: _333  and  _334
REMARK  133  A    between atoms: _333  and  _336
REMARK  134  A    between atoms: _336  and  _337
REMARK  135  A    between atoms: _342  and  _344
REMARK  136  A    between atoms: _344  and  _345
REMARK  137  A    between atoms: _344  and  _347
REMARK  138  A    between atoms: _347  and  _348
REMARK  139  A    between atoms: _348  and  _349
REMARK  140  A    between atoms: _352  and  _354
REMARK  141  A    between atoms: _354  and  _355
REMARK  142  A    between atoms: _354  and  _357
REMARK  143  A    between atoms: _357  and  _358
REMARK  144  A    between atoms: _360  and  _362
REMARK  145  A    between atoms: _362  and  _363
REMARK  146  A    between atoms: _362  and  _365
REMARK  147  A    between atoms: _365  and  _366
REMARK  148  A    between atoms: _369  and  _371
REMARK  149  A    between atoms: _371  and  _372
REMARK  150  A    between atoms: _371  and  _374
REMARK  151  A    between atoms: _374  and  _375
REMARK  152  A    between atoms: _377  and  _379
REMARK  153  A    between atoms: _379  and  _380
REMARK  154  A    between atoms: _379  and  _382
REMARK  155  A    between atoms: _382  and  _383
REMARK  156  A    between atoms: _386  and  _388
REMARK  157  A    between atoms: _388  and  _389
REMARK  158  A    between atoms: _388  and  _391
REMARK  159  A    between atoms: _391  and  _392
REMARK  160  A    between atoms: _395  and  _397
REMARK  161  A    between atoms: _397  and  _398
REMARK  162  A    between atoms: _397  and  _400
REMARK  163  A    between atoms: _400  and  _401
REMARK  164  A    between atoms: _401  and  _402
REMARK  165  A    between atoms: _407  and  _409
REMARK  166  A    between atoms: _409  and  _410
REMARK  167  A    between atoms: _409  and  _412
REMARK  168  A    between atoms: _412  and  _413
REMARK  169  A    between atoms: _419  and  _421
REMARK  170  A    between atoms: _421  and  _422
REMARK  171  A    between atoms: _421  and  _424
REMARK  172  A    between atoms: _426  and  _428
REMARK  173  A    between atoms: _428  and  _429
REMARK  174  A    between atoms: _432  and  _434
REMARK  175  A    between atoms: _434  and  _435
REMARK  176  A    between atoms: _437  and  _439
REMARK  177  A    between atoms: _439  and  _440
REMARK  178  A    between atoms: _442  and  _444
REMARK  179  A    between atoms: _444  and  _445
REMARK  180  A    between atoms: _444  and  _447
REMARK  181  A    between atoms: _447  and  _448
REMARK  182  A    between atoms: _451  and  _453
REMARK  183  A    between atoms: _453  and  _454
REMARK  184  A    between atoms: _456  and  _458
REMARK  185  A    between atoms: _458  and  _459
REMARK  186  A    between atoms: _458  and  _461
REMARK  187  A    between atoms: _461  and  _462
REMARK  188  A    between atoms: _468  and  _470
REMARK  189  A    between atoms: _470  and  _471
REMARK  190  A    between atoms: _470  and  _473
REMARK  191  A    between atoms: _476  and  _478
REMARK  192  A    between atoms: _478  and  _479
REMARK  193  A    between atoms: _478  and  _481
REMARK  194  A    between atoms: _481  and  _482
REMARK  195  A    between atoms: _485  and  _487
REMARK  196  A    between atoms: _487  and  _488
REMARK  197  A    between atoms: _490  and  _492
REMARK  198  A    between atoms: _492  and  _493
REMARK  199  A    between atoms: _492  and  _495
REMARK  200  A    between atoms: _495  and  _496
REMARK  201  A    between atoms: _496  and  _497
REMARK  202  A    between atoms: _497  and  MG_734
REMARK  203  A    between atoms: _499  and  _501
REMARK  204  A    between atoms: _501  and  _502
REMARK  205  A    between atoms: _504  and  _506
REMARK  206  A    between atoms: _506  and  _507
REMARK  207  A    between atoms: _506  and  _509
REMARK  208  A    between atoms: _509  and  _510
REMARK  209  A    between atoms: _512  and  _514
REMARK  210  A    between atoms: _514  and  _515
REMARK  211  A    between atoms: _518  and  _520
REMARK  212  A    between atoms: _520  and  _521
REMARK  213  A    between atoms: _520  and  _523
REMARK  214  A    between atoms: _523  and  _524
REMARK  215  A    between atoms: _529  and  _531
REMARK  216  A    between atoms: _531  and  _532
REMARK  217  A    between atoms: _531  and  _534
REMARK  218  A    between atoms: _534  and  _535
REMARK  219  A    between atoms: _540  and  _541
REMARK  220  A    between atoms: _543  and  _545
REMARK  221  A    between atoms: _545  and  _546
REMARK  222  A    between atoms: _545  and  _548
REMARK  223  A    between atoms: _548  and  _549
REMARK  224  A    between atoms: _552  and  _554
REMARK  225  A    between atoms: _554  and  _555
REMARK  226  A    between atoms: _554  and  _557
REMARK  227  A    between atoms: _557  and  _558
REMARK  228  A    between atoms: _558  and  _559
REMARK  229  A    between atoms: _561  and  _563
REMARK  230  A    between atoms: _563  and  _564
REMARK  231  A    between atoms: _563  and  _566
REMARK  232  A    between atoms: _566  and  _567
REMARK  233  A    between atoms: _572  and  _574
REMARK  234  A    between atoms: _574  and  _575
REMARK  235  A    between atoms: _574  and  _577
REMARK  236  A    between atoms: _577  and  _578
REMARK  237  A    between atoms: _583  and  _585
REMARK  238  A    between atoms: _585  and  _586
REMARK  239  A    between atoms: _588  and  _590
REMARK  240  A    between atoms: _590  and  _591
REMARK  241  A    between atoms: _590  and  _593
REMARK  242  A    between atoms: _591  and  _592
REMARK  243  A    between atoms: _591  and  _597
REMARK  244  A    between atoms: _592  and  MG_734
REMARK  245  A    between atoms: _593  and  _594
REMARK  246  A    between atoms: _597  and  _599
REMARK  247  A    between atoms: _599  and  _600
REMARK  248  A    between atoms: _599  and  _602
REMARK  249  A    between atoms: _602  and  _603
REMARK  250  A    between atoms: _608  and  _609
REMARK  251  A    between atoms: _611  and  _613
REMARK  252  A    between atoms: _613  and  _614
REMARK  253  A    between atoms: _616  and  _618
REMARK  254  A    between atoms: _618  and  _619
REMARK  255  A    between atoms: _622  and  _624
REMARK  256  A    between atoms: _624  and  _625
REMARK  257  A    between atoms: _624  and  _627
REMARK  258  A    between atoms: _627  and  _628
REMARK  259  A    between atoms: _631  and  _633
REMARK  260  A    between atoms: _633  and  _634
REMARK  261  A    between atoms: _633  and  _636
REMARK  262  A    between atoms: _636  and  _637
REMARK  263  A    between atoms: _637  and  _638
REMARK  264  A    between atoms: _638  and  _639
REMARK  265  A    between atoms: _648  and  _650
REMARK  266  A    between atoms: _650  and  _651
REMARK  267  A    between atoms: _650  and  _653
REMARK  268  A    between atoms: _653  and  _654
REMARK  269  A    between atoms: _664  and  _666
REMARK  270  A    between atoms: _666  and  _667
REMARK  271  A    between atoms: _666  and  _669
REMARK  272  A    between atoms: _669  and  _670
REMARK  273  A    between atoms: _676  and  _678
REMARK  274  A    between atoms: _678  and  _679
REMARK  275  A    between atoms: _681  and  _683
REMARK  276  A    between atoms: _683  and  _684
REMARK  277  A    between atoms: _683  and  _686
REMARK  278  A    between atoms: _686  and  _687
REMARK  279  A    between atoms: _690  and  _692
REMARK  280  A    between atoms: _692  and  _693
REMARK  281  A    between atoms: _692  and  _695
REMARK  282  A    between atoms: _698  and  _700
REMARK  283  A    between atoms: _700  and  _701
REMARK  284  A    between atoms: _700  and  _703
REMARK  285  A    between atoms: _703  and  _704
REMARK  286  A    between atoms: _710  and  _712
REMARK  287  A    between atoms: _712  and  _713
REMARK  288  A    between atoms: _712  and  _715
REMARK  289  A    between atoms: _715  and  _716
REMARK  290  A    between atoms: _719  and  _721
REMARK  291  A    between atoms: _721  and  _722
REMARK  292  A    between atoms: _721  and  _724
REMARK  293  A    between atoms: _728  and  _729
REMARK                            x       y       z     vdW  Elec       q    Type
REMARK                         _______ _______ _______ _____ _____    ______ ____
ROOT
ATOM      1  O   HOH     1      70.564  46.548 157.944  0.00  0.00    +0.000 OA
ENDROOT
TORSDOF 0
REMARK  Name = ../refined-set-2016/3f6e/3f6e_pocket.pdb
REMARK  293 active torsions:
REMARK  status: ('A' for Active; 'I' for Inactive)
REMARK    1  A    between atoms: _1  and  _3
REMARK    2  A    between atoms: _3  and  _4
REMARK    3  A    between atoms: _3  and  _6
REMARK    4  A    between atoms: _6  and  _7
REMARK    5  A    between atoms: _13  and  _14
REMARK    6  A    between atoms: _19  and  _21
REMARK    7  A    between atoms: _21  and  _22
REMARK    8  A    between atoms: _24  and  _26
REMARK    9  A    between atoms: _26  and  _27
REMARK   10  A    between atoms: _26  and  _29
REMARK   11  A    between atoms: _29  and  _30
REMARK   12  A    between atoms: _32  and  _34
REMARK   13  A    between atoms: _34  and  _35
REMARK   14  A    between atoms: _34  and  _37
REMARK   15  A    between atoms: _37  and  _38
REMARK   16  A    between atoms: _43  and  _45
REMARK   17  A    between atoms: _45  and  _46
REMARK   18  A    between atoms: _45  and  _48
REMARK   19  A    between atoms: _48  and  _49
REMARK   20  A    between atoms: _49  and  _50
REMARK   21  A    between atoms: _53  and  _55
REMARK   22  A    between atoms: _55  and  _56
REMARK   23  A    between atoms: _55  and  _58
REMARK   24  A    between atoms: _58  and  _59
REMARK   25  A    between atoms: _62  and  _64
REMARK   26  A    between atoms: _64  and  _65
REMARK   27  A    between atoms: _64  and  _67
REMARK   28  A    between atoms: _67  and  _68
REMARK   29  A    between atoms: _71  and  _73
REMARK   30  A    between atoms: _73  and  _74
REMARK   31  A    between atoms: _77  and  _79
REMARK   32  A    between atoms: _79  and  _80
REMARK   33  A    between atoms: _79  and  _82
REMARK   34  A    between atoms: _82  and  _83
REMARK   35  A    between atoms: _86  and  _88
REMARK   36  A    between atoms: _88  and  _89
REMARK   37  A    between atoms: _88  and  _91
REMARK   38  A    between atoms: _91  and  _92
REMARK   39  A    between atoms: _92  and  _93
REMARK   40  A    between atoms: _98  and  _100
REMARK   41  A    between atoms: _100  and  _101
REMARK   42  A    between atoms: _100  and  _103
REMARK   43  A    between atoms: _103  and  _104
REMARK   44  A    between atoms: _104  and  _105
REMARK   45  A    between atoms: _108  and  _110
REMARK   46  A    between atoms: _110  and  _111
REMARK   47  A    between atoms: _114  and  _116
REMARK   48  A    between atoms: _116  and  _117
REMARK   49  A    between atoms: _116  and  _119
REMARK   50  A    between atoms: _119  and  _120
REMARK   51  A    between atoms: _123  and  _125
REMARK   52  A    between atoms: _125  and  _126
REMARK   53  A    between atoms: _125  and  _128
REMARK   54  A    between atoms: _128  and  _129
REMARK   55  A    between atoms: _134  and  _136
REMARK   56  A    between atoms: _136  and  _137
REMARK   57  A    between atoms: _136  and  _139
REMARK   58  A    between atoms: _139  and  _140
REMARK   59  A    between atoms: _142  and  _144
REMARK   60  A    between atoms: _144  and  _145
REMARK   61  A    between atoms: _148  and  _150
REMARK   62  A    between atoms: _150  and  _151
REMARK   63  A    between atoms: _154  and  _156
REMARK   64  A    between atoms: _156  and  _157
REMARK   65  A    between atoms: _159  and  _161
REMARK   66  A    between atoms: _161  and  _162
REMARK   67  A    between atoms: _161  and  _164
REMARK   68  A    between atoms: _164  and  _165
REMARK   69  A    between atoms: _168  and  _170
REMARK   70  A    between atoms: _170  and  _171
REMARK   71  A    between atoms: _173  and  _175
REMARK   72  A    between atoms: _175  and  _176
REMARK   73  A    between atoms: _175  and  _178
REMARK   74  A    between atoms: _178  and  _179
REMARK   75  A    between atoms: _184  and  _186
REMARK   76  A    between atoms: _186  and  _187
REMARK   77  A    between atoms: _190  and  _192
REMARK   78  A    between atoms: _192  and  _193
REMARK   79  A    between atoms: _192  and  _195
REMARK   80  A    between atoms: _195  and  _196
REMARK   81  A    between atoms: _196  and  _197
REMARK   82  A    between atoms: _202  and  _204
REMARK   83  A    between atoms: _204  and  _205
REMARK   84  A    between atoms: _204  and  _207
REMARK   85  A    between atoms: _207  and  _208
REMARK   86  A    between atoms: _211  and  _213
REMARK   87  A    between atoms: _213  and  _214
REMARK   88  A    between atoms: _213  and  _216
REMARK   89  A    between atoms: _216  and  _217
REMARK   90  A    between atoms: _220  and  _222
REMARK   91  A    between atoms: _222  and  _223
REMARK   92  A    between atoms: _225  and  _227
REMARK   93  A    between atoms: _227  and  _228
REMARK   94  A    between atoms: _231  and  _233
REMARK   95  A    between atoms: _233  and  _234
REMARK   96  A    between atoms: _233  and  _236
REMARK   97  A    between atoms: _236  and  _237
REMARK   98  A    between atoms: _239  and  _241
REMARK   99  A    between atoms: _241  and  _242
REMARK  100  A    between atoms: _241  and  _244
REMARK  101  A    between atoms: _244  and  _245
REMARK  102  A    between atoms: _250  and  _252
REMARK  103  A    between atoms: _252  and  _253
REMARK  104  A    between atoms: _252  and  _255
REMARK  105  A    between atoms: _255  and  _256
REMARK  106  A    between atoms: _258  and  _260
REMARK  107  A    between atoms: _260  and  _261
REMARK  108  A    between atoms: _264  and  _266
REMARK  109  A    between atoms: _266  and  _267
REMARK  110  A    between atoms: _270  and  _272
REMARK  111  A    between atoms: _272  and  _273
REMARK  112  A    between atoms: _272  and  _275
REMARK  113  A    between atoms: _275  and  _276
REMARK  114  A    between atoms: _276  and  _277
REMARK  115  A    between atoms: _277  and  _278
REMARK  116  A    between atoms: _287  and  _289
REMARK  117  A    between atoms: _289  and  _290
REMARK  118  A    between atoms: _289  and  _292
REMARK  119  A    between atoms: _292  and  _293
REMARK  120  A    between atoms: _298  and  _299
REMARK  121  A    between atoms: _301  and  _303
REMARK  122  A    between atoms: _303  and  _304
REMARK  123  A    between atoms: _303  and  _306
REMARK  124  A    between atoms: _306  and  _307
REMARK  125  A    between atoms: _312  and  _314
REMARK  126  A    between atoms: _314  and  _315
REMARK  127  A    between atoms: _314  and  _317
REMARK  128  A    between atoms: _317  and  _318
REMARK  129  A    between atoms: _318  and  _319
REMARK  130  A    between atoms: _325  and  _326
REMARK  131  A    between atoms: _331  and  _333
REMARK  132  A    between atoms: _333  and  _334
REMARK  133  A    between atoms: _333  and  _336
REMARK  134  A    between atoms: _336  and  _337
REMARK  135  A    between atoms: _342  and  _344
REMARK  136  A    between atoms: _344  and  _345
REMARK  137  A    between atoms: _344  and  _347
REMARK  138  A    between atoms: _347  and  _348
REMARK  139  A    between atoms: _348  and  _349
REMARK  140  A    between atoms: _352  and  _354
REMARK  141  A    between atoms: _354  and  _355
REMARK  142  A    between atoms: _354  and  _357
REMARK  143  A    between atoms: _357  and  _358
REMARK  144  A    between atoms: _360  and  _362
REMARK  145  A    between atoms: _362  and  _363
REMARK  146  A    between atoms: _362  and  _365
REMARK  147  A    between atoms: _365  and  _366
REMARK  148  A    between atoms: _369  and  _371
REMARK  149  A    between atoms: _371  and  _372
REMARK  150  A    between atoms: _371  and  _374
REMARK  151  A    between atoms: _374  and  _375
REMARK  152  A    between atoms: _377  and  _379
REMARK  153  A    between atoms: _379  and  _380
REMARK  154  A    between atoms: _379  and  _382
REMARK  155  A    between atoms: _382  and  _383
REMARK  156  A    between atoms: _386  and  _388
REMARK  157  A    between atoms: _388  and  _389
REMARK  158  A    between atoms: _388  and  _391
REMARK  159  A    between atoms: _391  and  _392
REMARK  160  A    between atoms: _395  and  _397
REMARK  161  A    between atoms: _397  and  _398
REMARK  162  A    between atoms: _397  and  _400
REMARK  163  A    between atoms: _400  and  _401
REMARK  164  A    between atoms: _401  and  _402
REMARK  165  A    between atoms: _407  and  _409
REMARK  166  A    between atoms: _409  and  _410
REMARK  167  A    between atoms: _409  and  _412
REMARK  168  A    between atoms: _412  and  _413
REMARK  169  A    between atoms: _419  and  _421
REMARK  170  A    between atoms: _421  and  _422
REMARK  171  A    between atoms: _421  and  _424
REMARK  172  A    between atoms: _426  and  _428
REMARK  173  A    between atoms: _428  and  _429
REMARK  174  A    between atoms: _432  and  _434
REMARK  175  A    between atoms: _434  and  _435
REMARK  176  A    between atoms: _437  and  _439
REMARK  177  A    between atoms: _439  and  _440
REMARK  178  A    between atoms: _442  and  _444
REMARK  179  A    between atoms: _444  and  _445
REMARK  180  A    between atoms: _444  and  _447
REMARK  181  A    between atoms: _447  and  _448
REMARK  182  A    between atoms: _451  and  _453
REMARK  183  A    between atoms: _453  and  _454
REMARK  184  A    between atoms: _456  and  _458
REMARK  185  A    between atoms: _458  and  _459
REMARK  186  A    between atoms: _458  and  _461
REMARK  187  A    between atoms: _461  and  _462
REMARK  188  A    between atoms: _468  and  _470
REMARK  189  A    between atoms: _470  and  _471
REMARK  190  A    between atoms: _470  and  _473
REMARK  191  A    between atoms: _476  and  _478
REMARK  192  A    between atoms: _478  and  _479
REMARK  193  A    between atoms: _478  and  _481
REMARK  194  A    between atoms: _481  and  _482
REMARK  195  A    between atoms: _485  and  _487
REMARK  196  A    between atoms: _487  and  _488
REMARK  197  A    between atoms: _490  and  _492
REMARK  198  A    between atoms: _492  and  _493
REMARK  199  A    between atoms: _492  and  _495
REMARK  200  A    between atoms: _495  and  _496
REMARK  201  A    between atoms: _496  and  _497
REMARK  202  A    between atoms: _497  and  MG_734
REMARK  203  A    between atoms: _499  and  _501
REMARK  204  A    between atoms: _501  and  _502
REMARK  205  A    between atoms: _504  and  _506
REMARK  206  A    between atoms: _506  and  _507
REMARK  207  A    between atoms: _506  and  _509
REMARK  208  A    between atoms: _509  and  _510
REMARK  209  A    between atoms: _512  and  _514
REMARK  210  A    between atoms: _514  and  _515
REMARK  211  A    between atoms: _518  and  _520
REMARK  212  A    between atoms: _520  and  _521
REMARK  213  A    between atoms: _520  and  _523
REMARK  214  A    between atoms: _523  and  _524
REMARK  215  A    between atoms: _529  and  _531
REMARK  216  A    between atoms: _531  and  _532
REMARK  217  A    between atoms: _531  and  _534
REMARK  218  A    between atoms: _534  and  _535
REMARK  219  A    between atoms: _540  and  _541
REMARK  220  A    between atoms: _543  and  _545
REMARK  221  A    between atoms: _545  and  _546
REMARK  222  A    between atoms: _545  and  _548
REMARK  223  A    between atoms: _548  and  _549
REMARK  224  A    between atoms: _552  and  _554
REMARK  225  A    between atoms: _554  and  _555
REMARK  226  A    between atoms: _554  and  _557
REMARK  227  A    between atoms: _557  and  _558
REMARK  228  A    between atoms: _558  and  _559
REMARK  229  A    between atoms: _561  and  _563
REMARK  230  A    between atoms: _563  and  _564
REMARK  231  A    between atoms: _563  and  _566
REMARK  232  A    between atoms: _566  and  _567
REMARK  233  A    between atoms: _572  and  _574
REMARK  234  A    between atoms: _574  and  _575
REMARK  235  A    between atoms: _574  and  _577
REMARK  236  A    between atoms: _577  and  _578
REMARK  237  A    between atoms: _583  and  _585
REMARK  238  A    between atoms: _585  and  _586
REMARK  239  A    between atoms: _588  and  _590
REMARK  240  A    between atoms: _590  and  _591
REMARK  241  A    between atoms: _590  and  _593
REMARK  242  A    between atoms: _591  and  _592
REMARK  243  A    between atoms: _591  and  _597
REMARK  244  A    between atoms: _592  and  MG_734
REMARK  245  A    between atoms: _593  and  _594
REMARK  246  A    between atoms: _597  and  _599
REMARK  247  A    between atoms: _599  and  _600
REMARK  248  A    between atoms: _599  and  _602
REMARK  249  A    between atoms: _602  and  _603
REMARK  250  A    between atoms: _608  and  _609
REMARK  251  A    between atoms: _611  and  _613
REMARK  252  A    between atoms: _613  and  _614
REMARK  253  A    between atoms: _616  and  _618
REMARK  254  A    between atoms: _618  and  _619
REMARK  255  A    between atoms: _622  and  _624
REMARK  256  A    between atoms: _624  and  _625
REMARK  257  A    between atoms: _624  and  _627
REMARK  258  A    between atoms: _627  and  _628
REMARK  259  A    between atoms: _631  and  _633
REMARK  260  A    between atoms: _633  and  _634
REMARK  261  A    between atoms: _633  and  _636
REMARK  262  A    between atoms: _636  and  _637
REMARK  263  A    between atoms: _637  and  _638
REMARK  264  A    between atoms: _638  and  _639
REMARK  265  A    between atoms: _648  and  _650
REMARK  266  A    between atoms: _650  and  _651
REMARK  267  A    between atoms: _650  and  _653
REMARK  268  A    between atoms: _653  and  _654
REMARK  269  A    between atoms: _664  and  _666
REMARK  270  A    between atoms: _666  and  _667
REMARK  271  A    between atoms: _666  and  _669
REMARK  272  A    between atoms: _669  and  _670
REMARK  273  A    between atoms: _676  and  _678
REMARK  274  A    between atoms: _678  and  _679
REMARK  275  A    between atoms: _681  and  _683
REMARK  276  A    between atoms: _683  and  _684
REMARK  277  A    between atoms: _683  and  _686
REMARK  278  A    between atoms: _686  and  _687
REMARK  279  A    between atoms: _690  and  _692
REMARK  280  A    between atoms: _692  and  _693
REMARK  281  A    between atoms: _692  and  _695
REMARK  282  A    between atoms: _698  and  _700
REMARK  283  A    between atoms: _700  and  _701
REMARK  284  A    between atoms: _700  and  _703
REMARK  285  A    between atoms: _703  and  _704
REMARK  286  A    between atoms: _710  and  _712
REMARK  287  A    between atoms: _712  and  _713
REMARK  288  A    between atoms: _712  and  _715
REMARK  289  A    between atoms: _715  and  _716
REMARK  290  A    between atoms: _719  and  _721
REMARK  291  A    between atoms: _721  and  _722
REMARK  292  A    between atoms: _721  and  _724
REMARK  293  A    between atoms: _728  and  _729
REMARK                            x       y       z     vdW  Elec       q    Type
REMARK                         _______ _______ _______ _____ _____    ______ ____
ROOT
ATOM      1  O   HOH     1      61.805  53.769 153.681  0.00  0.00    +0.000 OA
ENDROOT
TORSDOF 0
REMARK  Name = ../refined-set-2016/3f6e/3f6e_pocket.pdb
REMARK  293 active torsions:
REMARK  status: ('A' for Active; 'I' for Inactive)
REMARK    1  A    between atoms: _1  and  _3
REMARK    2  A    between atoms: _3  and  _4
REMARK    3  A    between atoms: _3  and  _6
REMARK    4  A    between atoms: _6  and  _7
REMARK    5  A    between atoms: _13  and  _14
REMARK    6  A    between atoms: _19  and  _21
REMARK    7  A    between atoms: _21  and  _22
REMARK    8  A    between atoms: _24  and  _26
REMARK    9  A    between atoms: _26  and  _27
REMARK   10  A    between atoms: _26  and  _29
REMARK   11  A    between atoms: _29  and  _30
REMARK   12  A    between atoms: _32  and  _34
REMARK   13  A    between atoms: _34  and  _35
REMARK   14  A    between atoms: _34  and  _37
REMARK   15  A    between atoms: _37  and  _38
REMARK   16  A    between atoms: _43  and  _45
REMARK   17  A    between atoms: _45  and  _46
REMARK   18  A    between atoms: _45  and  _48
REMARK   19  A    between atoms: _48  and  _49
REMARK   20  A    between atoms: _49  and  _50
REMARK   21  A    between atoms: _53  and  _55
REMARK   22  A    between atoms: _55  and  _56
REMARK   23  A    between atoms: _55  and  _58
REMARK   24  A    between atoms: _58  and  _59
REMARK   25  A    between atoms: _62  and  _64
REMARK   26  A    between atoms: _64  and  _65
REMARK   27  A    between atoms: _64  and  _67
REMARK   28  A    between atoms: _67  and  _68
REMARK   29  A    between atoms: _71  and  _73
REMARK   30  A    between atoms: _73  and  _74
REMARK   31  A    between atoms: _77  and  _79
REMARK   32  A    between atoms: _79  and  _80
REMARK   33  A    between atoms: _79  and  _82
REMARK   34  A    between atoms: _82  and  _83
REMARK   35  A    between atoms: _86  and  _88
REMARK   36  A    between atoms: _88  and  _89
REMARK   37  A    between atoms: _88  and  _91
REMARK   38  A    between atoms: _91  and  _92
REMARK   39  A    between atoms: _92  and  _93
REMARK   40  A    between atoms: _98  and  _100
REMARK   41  A    between atoms: _100  and  _101
REMARK   42  A    between atoms: _100  and  _103
REMARK   43  A    between atoms: _103  and  _104
REMARK   44  A    between atoms: _104  and  _105
REMARK   45  A    between atoms: _108  and  _110
REMARK   46  A    between atoms: _110  and  _111
REMARK   47  A    between atoms: _114  and  _116
REMARK   48  A    between atoms: _116  and  _117
REMARK   49  A    between atoms: _116  and  _119
REMARK   50  A    between atoms: _119  and  _120
REMARK   51  A    between atoms: _123  and  _125
REMARK   52  A    between atoms: _125  and  _126
REMARK   53  A    between atoms: _125  and  _128
REMARK   54  A    between atoms: _128  and  _129
REMARK   55  A    between atoms: _134  and  _136
REMARK   56  A    between atoms: _136  and  _137
REMARK   57  A    between atoms: _136  and  _139
REMARK   58  A    between atoms: _139  and  _140
REMARK   59  A    between atoms: _142  and  _144
REMARK   60  A    between atoms: _144  and  _145
REMARK   61  A    between atoms: _148  and  _150
REMARK   62  A    between atoms: _150  and  _151
REMARK   63  A    between atoms: _154  and  _156
REMARK   64  A    between atoms: _156  and  _157
REMARK   65  A    between atoms: _159  and  _161
REMARK   66  A    between atoms: _161  and  _162
REMARK   67  A    between atoms: _161  and  _164
REMARK   68  A    between atoms: _164  and  _165
REMARK   69  A    between atoms: _168  and  _170
REMARK   70  A    between atoms: _170  and  _171
REMARK   71  A    between atoms: _173  and  _175
REMARK   72  A    between atoms: _175  and  _176
REMARK   73  A    between atoms: _175  and  _178
REMARK   74  A    between atoms: _178  and  _179
REMARK   75  A    between atoms: _184  and  _186
REMARK   76  A    between atoms: _186  and  _187
REMARK   77  A    between atoms: _190  and  _192
REMARK   78  A    between atoms: _192  and  _193
REMARK   79  A    between atoms: _192  and  _195
REMARK   80  A    between atoms: _195  and  _196
REMARK   81  A    between atoms: _196  and  _197
REMARK   82  A    between atoms: _202  and  _204
REMARK   83  A    between atoms: _204  and  _205
REMARK   84  A    between atoms: _204  and  _207
REMARK   85  A    between atoms: _207  and  _208
REMARK   86  A    between atoms: _211  and  _213
REMARK   87  A    between atoms: _213  and  _214
REMARK   88  A    between atoms: _213  and  _216
REMARK   89  A    between atoms: _216  and  _217
REMARK   90  A    between atoms: _220  and  _222
REMARK   91  A    between atoms: _222  and  _223
REMARK   92  A    between atoms: _225  and  _227
REMARK   93  A    between atoms: _227  and  _228
REMARK   94  A    between atoms: _231  and  _233
REMARK   95  A    between atoms: _233  and  _234
REMARK   96  A    between atoms: _233  and  _236
REMARK   97  A    between atoms: _236  and  _237
REMARK   98  A    between atoms: _239  and  _241
REMARK   99  A    between atoms: _241  and  _242
REMARK  100  A    between atoms: _241  and  _244
REMARK  101  A    between atoms: _244  and  _245
REMARK  102  A    between atoms: _250  and  _252
REMARK  103  A    between atoms: _252  and  _253
REMARK  104  A    between atoms: _252  and  _255
REMARK  105  A    between atoms: _255  and  _256
REMARK  106  A    between atoms: _258  and  _260
REMARK  107  A    between atoms: _260  and  _261
REMARK  108  A    between atoms: _264  and  _266
REMARK  109  A    between atoms: _266  and  _267
REMARK  110  A    between atoms: _270  and  _272
REMARK  111  A    between atoms: _272  and  _273
REMARK  112  A    between atoms: _272  and  _275
REMARK  113  A    between atoms: _275  and  _276
REMARK  114  A    between atoms: _276  and  _277
REMARK  115  A    between atoms: _277  and  _278
REMARK  116  A    between atoms: _287  and  _289
REMARK  117  A    between atoms: _289  and  _290
REMARK  118  A    between atoms: _289  and  _292
REMARK  119  A    between atoms: _292  and  _293
REMARK  120  A    between atoms: _298  and  _299
REMARK  121  A    between atoms: _301  and  _303
REMARK  122  A    between atoms: _303  and  _304
REMARK  123  A    between atoms: _303  and  _306
REMARK  124  A    between atoms: _306  and  _307
REMARK  125  A    between atoms: _312  and  _314
REMARK  126  A    between atoms: _314  and  _315
REMARK  127  A    between atoms: _314  and  _317
REMARK  128  A    between atoms: _317  and  _318
REMARK  129  A    between atoms: _318  and  _319
REMARK  130  A    between atoms: _325  and  _326
REMARK  131  A    between atoms: _331  and  _333
REMARK  132  A    between atoms: _333  and  _334
REMARK  133  A    between atoms: _333  and  _336
REMARK  134  A    between atoms: _336  and  _337
REMARK  135  A    between atoms: _342  and  _344
REMARK  136  A    between atoms: _344  and  _345
REMARK  137  A    between atoms: _344  and  _347
REMARK  138  A    between atoms: _347  and  _348
REMARK  139  A    between atoms: _348  and  _349
REMARK  140  A    between atoms: _352  and  _354
REMARK  141  A    between atoms: _354  and  _355
REMARK  142  A    between atoms: _354  and  _357
REMARK  143  A    between atoms: _357  and  _358
REMARK  144  A    between atoms: _360  and  _362
REMARK  145  A    between atoms: _362  and  _363
REMARK  146  A    between atoms: _362  and  _365
REMARK  147  A    between atoms: _365  and  _366
REMARK  148  A    between atoms: _369  and  _371
REMARK  149  A    between atoms: _371  and  _372
REMARK  150  A    between atoms: _371  and  _374
REMARK  151  A    between atoms: _374  and  _375
REMARK  152  A    between atoms: _377  and  _379
REMARK  153  A    between atoms: _379  and  _380
REMARK  154  A    between atoms: _379  and  _382
REMARK  155  A    between atoms: _382  and  _383
REMARK  156  A    between atoms: _386  and  _388
REMARK  157  A    between atoms: _388  and  _389
REMARK  158  A    between atoms: _388  and  _391
REMARK  159  A    between atoms: _391  and  _392
REMARK  160  A    between atoms: _395  and  _397
REMARK  161  A    between atoms: _397  and  _398
REMARK  162  A    between atoms: _397  and  _400
REMARK  163  A    between atoms: _400  and  _401
REMARK  164  A    between atoms: _401  and  _402
REMARK  165  A    between atoms: _407  and  _409
REMARK  166  A    between atoms: _409  and  _410
REMARK  167  A    between atoms: _409  and  _412
REMARK  168  A    between atoms: _412  and  _413
REMARK  169  A    between atoms: _419  and  _421
REMARK  170  A    between atoms: _421  and  _422
REMARK  171  A    between atoms: _421  and  _424
REMARK  172  A    between atoms: _426  and  _428
REMARK  173  A    between atoms: _428  and  _429
REMARK  174  A    between atoms: _432  and  _434
REMARK  175  A    between atoms: _434  and  _435
REMARK  176  A    between atoms: _437  and  _439
REMARK  177  A    between atoms: _439  and  _440
REMARK  178  A    between atoms: _442  and  _444
REMARK  179  A    between atoms: _444  and  _445
REMARK  180  A    between atoms: _444  and  _447
REMARK  181  A    between atoms: _447  and  _448
REMARK  182  A    between atoms: _451  and  _453
REMARK  183  A    between atoms: _453  and  _454
REMARK  184  A    between atoms: _456  and  _458
REMARK  185  A    between atoms: _458  and  _459
REMARK  186  A    between atoms: _458  and  _461
REMARK  187  A    between atoms: _461  and  _462
REMARK  188  A    between atoms: _468  and  _470
REMARK  189  A    between atoms: _470  and  _471
REMARK  190  A    between atoms: _470  and  _473
REMARK  191  A    between atoms: _476  and  _478
REMARK  192  A    between atoms: _478  and  _479
REMARK  193  A    between atoms: _478  and  _481
REMARK  194  A    between atoms: _481  and  _482
REMARK  195  A    between atoms: _485  and  _487
REMARK  196  A    between atoms: _487  and  _488
REMARK  197  A    between atoms: _490  and  _492
REMARK  198  A    between atoms: _492  and  _493
REMARK  199  A    between atoms: _492  and  _495
REMARK  200  A    between atoms: _495  and  _496
REMARK  201  A    between atoms: _496  and  _497
REMARK  202  A    between atoms: _497  and  MG_734
REMARK  203  A    between atoms: _499  and  _501
REMARK  204  A    between atoms: _501  and  _502
REMARK  205  A    between atoms: _504  and  _506
REMARK  206  A    between atoms: _506  and  _507
REMARK  207  A    between atoms: _506  and  _509
REMARK  208  A    between atoms: _509  and  _510
REMARK  209  A    between atoms: _512  and  _514
REMARK  210  A    between atoms: _514  and  _515
REMARK  211  A    between atoms: _518  and  _520
REMARK  212  A    between atoms: _520  and  _521
REMARK  213  A    between atoms: _520  and  _523
REMARK  214  A    between atoms: _523  and  _524
REMARK  215  A    between atoms: _529  and  _531
REMARK  216  A    between atoms: _531  and  _532
REMARK  217  A    between atoms: _531  and  _534
REMARK  218  A    between atoms: _534  and  _535
REMARK  219  A    between atoms: _540  and  _541
REMARK  220  A    between atoms: _543  and  _545
REMARK  221  A    between atoms: _545  and  _546
REMARK  222  A    between atoms: _545  and  _548
REMARK  223  A    between atoms: _548  and  _549
REMARK  224  A    between atoms: _552  and  _554
REMARK  225  A    between atoms: _554  and  _555
REMARK  226  A    between atoms: _554  and  _557
REMARK  227  A    between atoms: _557  and  _558
REMARK  228  A    between atoms: _558  and  _559
REMARK  229  A    between atoms: _561  and  _563
REMARK  230  A    between atoms: _563  and  _564
REMARK  231  A    between atoms: _563  and  _566
REMARK  232  A    between atoms: _566  and  _567
REMARK  233  A    between atoms: _572  and  _574
REMARK  234  A    between atoms: _574  and  _575
REMARK  235  A    between atoms: _574  and  _577
REMARK  236  A    between atoms: _577  and  _578
REMARK  237  A    between atoms: _583  and  _585
REMARK  238  A    between atoms: _585  and  _586
REMARK  239  A    between atoms: _588  and  _590
REMARK  240  A    between atoms: _590  and  _591
REMARK  241  A    between atoms: _590  and  _593
REMARK  242  A    between atoms: _591  and  _592
REMARK  243  A    between atoms: _591  and  _597
REMARK  244  A    between atoms: _592  and  MG_734
REMARK  245  A    between atoms: _593  and  _594
REMARK  246  A    between atoms: _597  and  _599
REMARK  247  A    between atoms: _599  and  _600
REMARK  248  A    between atoms: _599  and  _602
REMARK  249  A    between atoms: _602  and  _603
REMARK  250  A    between atoms: _608  and  _609
REMARK  251  A    between atoms: _611  and  _613
REMARK  252  A    between atoms: _613  and  _614
REMARK  253  A    between atoms: _616  and  _618
REMARK  254  A    between atoms: _618  and  _619
REMARK  255  A    between atoms: _622  and  _624
REMARK  256  A    between atoms: _624  and  _625
REMARK  257  A    between atoms: _624  and  _627
REMARK  258  A    between atoms: _627  and  _628
REMARK  259  A    between atoms: _631  and  _633
REMARK  260  A    between atoms: _633  and  _634
REMARK  261  A    between atoms: _633  and  _636
REMARK  262  A    between atoms: _636  and  _637
REMARK  263  A    between atoms: _637  and  _638
REMARK  264  A    between atoms: _638  and  _639
REMARK  265  A    between atoms: _648  and  _650
REMARK  266  A    between atoms: _650  and  _651
REMARK  267  A    between atoms: _650  and  _653
REMARK  268  A    between atoms: _653  and  _654
REMARK  269  A    between atoms: _664  and  _666
REMARK  270  A    between atoms: _666  and  _667
REMARK  271  A    between atoms: _666  and  _669
REMARK  272  A    between atoms: _669  and  _670
REMARK  273  A    between atoms: _676  and  _678
REMARK  274  A    between atoms: _678  and  _679
REMARK  275  A    between atoms: _681  and  _683
REMARK  276  A    between atoms: _683  and  _684
REMARK  277  A    between atoms: _683  and  _686
REMARK  278  A    between atoms: _686  and  _687
REMARK  279  A    between atoms: _690  and  _692
REMARK  280  A    between atoms: _692  and  _693
REMARK  281  A    between atoms: _692  and  _695
REMARK  282  A    between atoms: _698  and  _700
REMARK  283  A    between atoms: _700  and  _701
REMARK  284  A    between atoms: _700  and  _703
REMARK  285  A    between atoms: _703  and  _704
REMARK  286  A    between atoms: _710  and  _712
REMARK  287  A    between atoms: _712  and  _713
REMARK  288  A    between atoms: _712  and  _715
REMARK  289  A    between atoms: _715  and  _716
REMARK  290  A    between atoms: _719  and  _721
REMARK  291  A    between atoms: _721  and  _722
REMARK  292  A    between atoms: _721  and  _724
REMARK  293  A    between atoms: _728  and  _729
REMARK                            x       y       z     vdW  Elec       q    Type
REMARK                         _______ _______ _______ _____ _____    ______ ____
ROOT
ATOM      1  O   HOH     1      65.395  58.553 170.485  0.00  0.00    +0.000 OA
ENDROOT
TORSDOF 0
REMARK  Name = ../refined-set-2016/3f6e/3f6e_pocket.pdb
REMARK  293 active torsions:
REMARK  status: ('A' for Active; 'I' for Inactive)
REMARK    1  A    between atoms: _1  and  _3
REMARK    2  A    between atoms: _3  and  _4
REMARK    3  A    between atoms: _3  and  _6
REMARK    4  A    between atoms: _6  and  _7
REMARK    5  A    between atoms: _13  and  _14
REMARK    6  A    between atoms: _19  and  _21
REMARK    7  A    between atoms: _21  and  _22
REMARK    8  A    between atoms: _24  and  _26
REMARK    9  A    between atoms: _26  and  _27
REMARK   10  A    between atoms: _26  and  _29
REMARK   11  A    between atoms: _29  and  _30
REMARK   12  A    between atoms: _32  and  _34
REMARK   13  A    between atoms: _34  and  _35
REMARK   14  A    between atoms: _34  and  _37
REMARK   15  A    between atoms: _37  and  _38
REMARK   16  A    between atoms: _43  and  _45
REMARK   17  A    between atoms: _45  and  _46
REMARK   18  A    between atoms: _45  and  _48
REMARK   19  A    between atoms: _48  and  _49
REMARK   20  A    between atoms: _49  and  _50
REMARK   21  A    between atoms: _53  and  _55
REMARK   22  A    between atoms: _55  and  _56
REMARK   23  A    between atoms: _55  and  _58
REMARK   24  A    between atoms: _58  and  _59
REMARK   25  A    between atoms: _62  and  _64
REMARK   26  A    between atoms: _64  and  _65
REMARK   27  A    between atoms: _64  and  _67
REMARK   28  A    between atoms: _67  and  _68
REMARK   29  A    between atoms: _71  and  _73
REMARK   30  A    between atoms: _73  and  _74
REMARK   31  A    between atoms: _77  and  _79
REMARK   32  A    between atoms: _79  and  _80
REMARK   33  A    between atoms: _79  and  _82
REMARK   34  A    between atoms: _82  and  _83
REMARK   35  A    between atoms: _86  and  _88
REMARK   36  A    between atoms: _88  and  _89
REMARK   37  A    between atoms: _88  and  _91
REMARK   38  A    between atoms: _91  and  _92
REMARK   39  A    between atoms: _92  and  _93
REMARK   40  A    between atoms: _98  and  _100
REMARK   41  A    between atoms: _100  and  _101
REMARK   42  A    between atoms: _100  and  _103
REMARK   43  A    between atoms: _103  and  _104
REMARK   44  A    between atoms: _104  and  _105
REMARK   45  A    between atoms: _108  and  _110
REMARK   46  A    between atoms: _110  and  _111
REMARK   47  A    between atoms: _114  and  _116
REMARK   48  A    between atoms: _116  and  _117
REMARK   49  A    between atoms: _116  and  _119
REMARK   50  A    between atoms: _119  and  _120
REMARK   51  A    between atoms: _123  and  _125
REMARK   52  A    between atoms: _125  and  _126
REMARK   53  A    between atoms: _125  and  _128
REMARK   54  A    between atoms: _128  and  _129
REMARK   55  A    between atoms: _134  and  _136
REMARK   56  A    between atoms: _136  and  _137
REMARK   57  A    between atoms: _136  and  _139
REMARK   58  A    between atoms: _139  and  _140
REMARK   59  A    between atoms: _142  and  _144
REMARK   60  A    between atoms: _144  and  _145
REMARK   61  A    between atoms: _148  and  _150
REMARK   62  A    between atoms: _150  and  _151
REMARK   63  A    between atoms: _154  and  _156
REMARK   64  A    between atoms: _156  and  _157
REMARK   65  A    between atoms: _159  and  _161
REMARK   66  A    between atoms: _161  and  _162
REMARK   67  A    between atoms: _161  and  _164
REMARK   68  A    between atoms: _164  and  _165
REMARK   69  A    between atoms: _168  and  _170
REMARK   70  A    between atoms: _170  and  _171
REMARK   71  A    between atoms: _173  and  _175
REMARK   72  A    between atoms: _175  and  _176
REMARK   73  A    between atoms: _175  and  _178
REMARK   74  A    between atoms: _178  and  _179
REMARK   75  A    between atoms: _184  and  _186
REMARK   76  A    between atoms: _186  and  _187
REMARK   77  A    between atoms: _190  and  _192
REMARK   78  A    between atoms: _192  and  _193
REMARK   79  A    between atoms: _192  and  _195
REMARK   80  A    between atoms: _195  and  _196
REMARK   81  A    between atoms: _196  and  _197
REMARK   82  A    between atoms: _202  and  _204
REMARK   83  A    between atoms: _204  and  _205
REMARK   84  A    between atoms: _204  and  _207
REMARK   85  A    between atoms: _207  and  _208
REMARK   86  A    between atoms: _211  and  _213
REMARK   87  A    between atoms: _213  and  _214
REMARK   88  A    between atoms: _213  and  _216
REMARK   89  A    between atoms: _216  and  _217
REMARK   90  A    between atoms: _220  and  _222
REMARK   91  A    between atoms: _222  and  _223
REMARK   92  A    between atoms: _225  and  _227
REMARK   93  A    between atoms: _227  and  _228
REMARK   94  A    between atoms: _231  and  _233
REMARK   95  A    between atoms: _233  and  _234
REMARK   96  A    between atoms: _233  and  _236
REMARK   97  A    between atoms: _236  and  _237
REMARK   98  A    between atoms: _239  and  _241
REMARK   99  A    between atoms: _241  and  _242
REMARK  100  A    between atoms: _241  and  _244
REMARK  101  A    between atoms: _244  and  _245
REMARK  102  A    between atoms: _250  and  _252
REMARK  103  A    between atoms: _252  and  _253
REMARK  104  A    between atoms: _252  and  _255
REMARK  105  A    between atoms: _255  and  _256
REMARK  106  A    between atoms: _258  and  _260
REMARK  107  A    between atoms: _260  and  _261
REMARK  108  A    between atoms: _264  and  _266
REMARK  109  A    between atoms: _266  and  _267
REMARK  110  A    between atoms: _270  and  _272
REMARK  111  A    between atoms: _272  and  _273
REMARK  112  A    between atoms: _272  and  _275
REMARK  113  A    between atoms: _275  and  _276
REMARK  114  A    between atoms: _276  and  _277
REMARK  115  A    between atoms: _277  and  _278
REMARK  116  A    between atoms: _287  and  _289
REMARK  117  A    between atoms: _289  and  _290
REMARK  118  A    between atoms: _289  and  _292
REMARK  119  A    between atoms: _292  and  _293
REMARK  120  A    between atoms: _298  and  _299
REMARK  121  A    between atoms: _301  and  _303
REMARK  122  A    between atoms: _303  and  _304
REMARK  123  A    between atoms: _303  and  _306
REMARK  124  A    between atoms: _306  and  _307
REMARK  125  A    between atoms: _312  and  _314
REMARK  126  A    between atoms: _314  and  _315
REMARK  127  A    between atoms: _314  and  _317
REMARK  128  A    between atoms: _317  and  _318
REMARK  129  A    between atoms: _318  and  _319
REMARK  130  A    between atoms: _325  and  _326
REMARK  131  A    between atoms: _331  and  _333
REMARK  132  A    between atoms: _333  and  _334
REMARK  133  A    between atoms: _333  and  _336
REMARK  134  A    between atoms: _336  and  _337
REMARK  135  A    between atoms: _342  and  _344
REMARK  136  A    between atoms: _344  and  _345
REMARK  137  A    between atoms: _344  and  _347
REMARK  138  A    between atoms: _347  and  _348
REMARK  139  A    between atoms: _348  and  _349
REMARK  140  A    between atoms: _352  and  _354
REMARK  141  A    between atoms: _354  and  _355
REMARK  142  A    between atoms: _354  and  _357
REMARK  143  A    between atoms: _357  and  _358
REMARK  144  A    between atoms: _360  and  _362
REMARK  145  A    between atoms: _362  and  _363
REMARK  146  A    between atoms: _362  and  _365
REMARK  147  A    between atoms: _365  and  _366
REMARK  148  A    between atoms: _369  and  _371
REMARK  149  A    between atoms: _371  and  _372
REMARK  150  A    between atoms: _371  and  _374
REMARK  151  A    between atoms: _374  and  _375
REMARK  152  A    between atoms: _377  and  _379
REMARK  153  A    between atoms: _379  and  _380
REMARK  154  A    between atoms: _379  and  _382
REMARK  155  A    between atoms: _382  and  _383
REMARK  156  A    between atoms: _386  and  _388
REMARK  157  A    between atoms: _388  and  _389
REMARK  158  A    between atoms: _388  and  _391
REMARK  159  A    between atoms: _391  and  _392
REMARK  160  A    between atoms: _395  and  _397
REMARK  161  A    between atoms: _397  and  _398
REMARK  162  A    between atoms: _397  and  _400
REMARK  163  A    between atoms: _400  and  _401
REMARK  164  A    between atoms: _401  and  _402
REMARK  165  A    between atoms: _407  and  _409
REMARK  166  A    between atoms: _409  and  _410
REMARK  167  A    between atoms: _409  and  _412
REMARK  168  A    between atoms: _412  and  _413
REMARK  169  A    between atoms: _419  and  _421
REMARK  170  A    between atoms: _421  and  _422
REMARK  171  A    between atoms: _421  and  _424
REMARK  172  A    between atoms: _426  and  _428
REMARK  173  A    between atoms: _428  and  _429
REMARK  174  A    between atoms: _432  and  _434
REMARK  175  A    between atoms: _434  and  _435
REMARK  176  A    between atoms: _437  and  _439
REMARK  177  A    between atoms: _439  and  _440
REMARK  178  A    between atoms: _442  and  _444
REMARK  179  A    between atoms: _444  and  _445
REMARK  180  A    between atoms: _444  and  _447
REMARK  181  A    between atoms: _447  and  _448
REMARK  182  A    between atoms: _451  and  _453
REMARK  183  A    between atoms: _453  and  _454
REMARK  184  A    between atoms: _456  and  _458
REMARK  185  A    between atoms: _458  and  _459
REMARK  186  A    between atoms: _458  and  _461
REMARK  187  A    between atoms: _461  and  _462
REMARK  188  A    between atoms: _468  and  _470
REMARK  189  A    between atoms: _470  and  _471
REMARK  190  A    between atoms: _470  and  _473
REMARK  191  A    between atoms: _476  and  _478
REMARK  192  A    between atoms: _478  and  _479
REMARK  193  A    between atoms: _478  and  _481
REMARK  194  A    between atoms: _481  and  _482
REMARK  195  A    between atoms: _485  and  _487
REMARK  196  A    between atoms: _487  and  _488
REMARK  197  A    between atoms: _490  and  _492
REMARK  198  A    between atoms: _492  and  _493
REMARK  199  A    between atoms: _492  and  _495
REMARK  200  A    between atoms: _495  and  _496
REMARK  201  A    between atoms: _496  and  _497
REMARK  202  A    between atoms: _497  and  MG_734
REMARK  203  A    between atoms: _499  and  _501
REMARK  204  A    between atoms: _501  and  _502
REMARK  205  A    between atoms: _504  and  _506
REMARK  206  A    between atoms: _506  and  _507
REMARK  207  A    between atoms: _506  and  _509
REMARK  208  A    between atoms: _509  and  _510
REMARK  209  A    between atoms: _512  and  _514
REMARK  210  A    between atoms: _514  and  _515
REMARK  211  A    between atoms: _518  and  _520
REMARK  212  A    between atoms: _520  and  _521
REMARK  213  A    between atoms: _520  and  _523
REMARK  214  A    between atoms: _523  and  _524
REMARK  215  A    between atoms: _529  and  _531
REMARK  216  A    between atoms: _531  and  _532
REMARK  217  A    between atoms: _531  and  _534
REMARK  218  A    between atoms: _534  and  _535
REMARK  219  A    between atoms: _540  and  _541
REMARK  220  A    between atoms: _543  and  _545
REMARK  221  A    between atoms: _545  and  _546
REMARK  222  A    between atoms: _545  and  _548
REMARK  223  A    between atoms: _548  and  _549
REMARK  224  A    between atoms: _552  and  _554
REMARK  225  A    between atoms: _554  and  _555
REMARK  226  A    between atoms: _554  and  _557
REMARK  227  A    between atoms: _557  and  _558
REMARK  228  A    between atoms: _558  and  _559
REMARK  229  A    between atoms: _561  and  _563
REMARK  230  A    between atoms: _563  and  _564
REMARK  231  A    between atoms: _563  and  _566
REMARK  232  A    between atoms: _566  and  _567
REMARK  233  A    between atoms: _572  and  _574
REMARK  234  A    between atoms: _574  and  _575
REMARK  235  A    between atoms: _574  and  _577
REMARK  236  A    between atoms: _577  and  _578
REMARK  237  A    between atoms: _583  and  _585
REMARK  238  A    between atoms: _585  and  _586
REMARK  239  A    between atoms: _588  and  _590
REMARK  240  A    between atoms: _590  and  _591
REMARK  241  A    between atoms: _590  and  _593
REMARK  242  A    between atoms: _591  and  _592
REMARK  243  A    between atoms: _591  and  _597
REMARK  244  A    between atoms: _592  and  MG_734
REMARK  245  A    between atoms: _593  and  _594
REMARK  246  A    between atoms: _597  and  _599
REMARK  247  A    between atoms: _599  and  _600
REMARK  248  A    between atoms: _599  and  _602
REMARK  249  A    between atoms: _602  and  _603
REMARK  250  A    between atoms: _608  and  _609
REMARK  251  A    between atoms: _611  and  _613
REMARK  252  A    between atoms: _613  and  _614
REMARK  253  A    between atoms: _616  and  _618
REMARK  254  A    between atoms: _618  and  _619
REMARK  255  A    between atoms: _622  and  _624
REMARK  256  A    between atoms: _624  and  _625
REMARK  257  A    between atoms: _624  and  _627
REMARK  258  A    between atoms: _627  and  _628
REMARK  259  A    between atoms: _631  and  _633
REMARK  260  A    between atoms: _633  and  _634
REMARK  261  A    between atoms: _633  and  _636
REMARK  262  A    between atoms: _636  and  _637
REMARK  263  A    between atoms: _637  and  _638
REMARK  264  A    between atoms: _638  and  _639
REMARK  265  A    between atoms: _648  and  _650
REMARK  266  A    between atoms: _650  and  _651
REMARK  267  A    between atoms: _650  and  _653
REMARK  268  A    between atoms: _653  and  _654
REMARK  269  A    between atoms: _664  and  _666
REMARK  270  A    between atoms: _666  and  _667
REMARK  271  A    between atoms: _666  and  _669
REMARK  272  A    between atoms: _669  and  _670
REMARK  273  A    between atoms: _676  and  _678
REMARK  274  A    between atoms: _678  and  _679
REMARK  275  A    between atoms: _681  and  _683
REMARK  276  A    between atoms: _683  and  _684
REMARK  277  A    between atoms: _683  and  _686
REMARK  278  A    between atoms: _686  and  _687
REMARK  279  A    between atoms: _690  and  _692
REMARK  280  A    between atoms: _692  and  _693
REMARK  281  A    between atoms: _692  and  _695
REMARK  282  A    between atoms: _698  and  _700
REMARK  283  A    between atoms: _700  and  _701
REMARK  284  A    between atoms: _700  and  _703
REMARK  285  A    between atoms: _703  and  _704
REMARK  286  A    between atoms: _710  and  _712
REMARK  287  A    between atoms: _712  and  _713
REMARK  288  A    between atoms: _712  and  _715
REMARK  289  A    between atoms: _715  and  _716
REMARK  290  A    between atoms: _719  and  _721
REMARK  291  A    between atoms: _721  and  _722
REMARK  292  A    between atoms: _721  and  _724
REMARK  293  A    between atoms: _728  and  _729
REMARK                            x       y       z     vdW  Elec       q    Type
REMARK                         _______ _______ _______ _____ _____    ______ ____
ROOT
ATOM      1  O   HOH     1      59.281  54.999 154.059  0.00  0.00    +0.000 OA
ENDROOT
TORSDOF 0
REMARK  Name = ../refined-set-2016/3f6e/3f6e_pocket.pdb
REMARK  293 active torsions:
REMARK  status: ('A' for Active; 'I' for Inactive)
REMARK    1  A    between atoms: _1  and  _3
REMARK    2  A    between atoms: _3  and  _4
REMARK    3  A    between atoms: _3  and  _6
REMARK    4  A    between atoms: _6  and  _7
REMARK    5  A    between atoms: _13  and  _14
REMARK    6  A    between atoms: _19  and  _21
REMARK    7  A    between atoms: _21  and  _22
REMARK    8  A    between atoms: _24  and  _26
REMARK    9  A    between atoms: _26  and  _27
REMARK   10  A    between atoms: _26  and  _29
REMARK   11  A    between atoms: _29  and  _30
REMARK   12  A    between atoms: _32  and  _34
REMARK   13  A    between atoms: _34  and  _35
REMARK   14  A    between atoms: _34  and  _37
REMARK   15  A    between atoms: _37  and  _38
REMARK   16  A    between atoms: _43  and  _45
REMARK   17  A    between atoms: _45  and  _46
REMARK   18  A    between atoms: _45  and  _48
REMARK   19  A    between atoms: _48  and  _49
REMARK   20  A    between atoms: _49  and  _50
REMARK   21  A    between atoms: _53  and  _55
REMARK   22  A    between atoms: _55  and  _56
REMARK   23  A    between atoms: _55  and  _58
REMARK   24  A    between atoms: _58  and  _59
REMARK   25  A    between atoms: _62  and  _64
REMARK   26  A    between atoms: _64  and  _65
REMARK   27  A    between atoms: _64  and  _67
REMARK   28  A    between atoms: _67  and  _68
REMARK   29  A    between atoms: _71  and  _73
REMARK   30  A    between atoms: _73  and  _74
REMARK   31  A    between atoms: _77  and  _79
REMARK   32  A    between atoms: _79  and  _80
REMARK   33  A    between atoms: _79  and  _82
REMARK   34  A    between atoms: _82  and  _83
REMARK   35  A    between atoms: _86  and  _88
REMARK   36  A    between atoms: _88  and  _89
REMARK   37  A    between atoms: _88  and  _91
REMARK   38  A    between atoms: _91  and  _92
REMARK   39  A    between atoms: _92  and  _93
REMARK   40  A    between atoms: _98  and  _100
REMARK   41  A    between atoms: _100  and  _101
REMARK   42  A    between atoms: _100  and  _103
REMARK   43  A    between atoms: _103  and  _104
REMARK   44  A    between atoms: _104  and  _105
REMARK   45  A    between atoms: _108  and  _110
REMARK   46  A    between atoms: _110  and  _111
REMARK   47  A    between atoms: _114  and  _116
REMARK   48  A    between atoms: _116  and  _117
REMARK   49  A    between atoms: _116  and  _119
REMARK   50  A    between atoms: _119  and  _120
REMARK   51  A    between atoms: _123  and  _125
REMARK   52  A    between atoms: _125  and  _126
REMARK   53  A    between atoms: _125  and  _128
REMARK   54  A    between atoms: _128  and  _129
REMARK   55  A    between atoms: _134  and  _136
REMARK   56  A    between atoms: _136  and  _137
REMARK   57  A    between atoms: _136  and  _139
REMARK   58  A    between atoms: _139  and  _140
REMARK   59  A    between atoms: _142  and  _144
REMARK   60  A    between atoms: _144  and  _145
REMARK   61  A    between atoms: _148  and  _150
REMARK   62  A    between atoms: _150  and  _151
REMARK   63  A    between atoms: _154  and  _156
REMARK   64  A    between atoms: _156  and  _157
REMARK   65  A    between atoms: _159  and  _161
REMARK   66  A    between atoms: _161  and  _162
REMARK   67  A    between atoms: _161  and  _164
REMARK   68  A    between atoms: _164  and  _165
REMARK   69  A    between atoms: _168  and  _170
REMARK   70  A    between atoms: _170  and  _171
REMARK   71  A    between atoms: _173  and  _175
REMARK   72  A    between atoms: _175  and  _176
REMARK   73  A    between atoms: _175  and  _178
REMARK   74  A    between atoms: _178  and  _179
REMARK   75  A    between atoms: _184  and  _186
REMARK   76  A    between atoms: _186  and  _187
REMARK   77  A    between atoms: _190  and  _192
REMARK   78  A    between atoms: _192  and  _193
REMARK   79  A    between atoms: _192  and  _195
REMARK   80  A    between atoms: _195  and  _196
REMARK   81  A    between atoms: _196  and  _197
REMARK   82  A    between atoms: _202  and  _204
REMARK   83  A    between atoms: _204  and  _205
REMARK   84  A    between atoms: _204  and  _207
REMARK   85  A    between atoms: _207  and  _208
REMARK   86  A    between atoms: _211  and  _213
REMARK   87  A    between atoms: _213  and  _214
REMARK   88  A    between atoms: _213  and  _216
REMARK   89  A    between atoms: _216  and  _217
REMARK   90  A    between atoms: _220  and  _222
REMARK   91  A    between atoms: _222  and  _223
REMARK   92  A    between atoms: _225  and  _227
REMARK   93  A    between atoms: _227  and  _228
REMARK   94  A    between atoms: _231  and  _233
REMARK   95  A    between atoms: _233  and  _234
REMARK   96  A    between atoms: _233  and  _236
REMARK   97  A    between atoms: _236  and  _237
REMARK   98  A    between atoms: _239  and  _241
REMARK   99  A    between atoms: _241  and  _242
REMARK  100  A    between atoms: _241  and  _244
REMARK  101  A    between atoms: _244  and  _245
REMARK  102  A    between atoms: _250  and  _252
REMARK  103  A    between atoms: _252  and  _253
REMARK  104  A    between atoms: _252  and  _255
REMARK  105  A    between atoms: _255  and  _256
REMARK  106  A    between atoms: _258  and  _260
REMARK  107  A    between atoms: _260  and  _261
REMARK  108  A    between atoms: _264  and  _266
REMARK  109  A    between atoms: _266  and  _267
REMARK  110  A    between atoms: _270  and  _272
REMARK  111  A    between atoms: _272  and  _273
REMARK  112  A    between atoms: _272  and  _275
REMARK  113  A    between atoms: _275  and  _276
REMARK  114  A    between atoms: _276  and  _277
REMARK  115  A    between atoms: _277  and  _278
REMARK  116  A    between atoms: _287  and  _289
REMARK  117  A    between atoms: _289  and  _290
REMARK  118  A    between atoms: _289  and  _292
REMARK  119  A    between atoms: _292  and  _293
REMARK  120  A    between atoms: _298  and  _299
REMARK  121  A    between atoms: _301  and  _303
REMARK  122  A    between atoms: _303  and  _304
REMARK  123  A    between atoms: _303  and  _306
REMARK  124  A    between atoms: _306  and  _307
REMARK  125  A    between atoms: _312  and  _314
REMARK  126  A    between atoms: _314  and  _315
REMARK  127  A    between atoms: _314  and  _317
REMARK  128  A    between atoms: _317  and  _318
REMARK  129  A    between atoms: _318  and  _319
REMARK  130  A    between atoms: _325  and  _326
REMARK  131  A    between atoms: _331  and  _333
REMARK  132  A    between atoms: _333  and  _334
REMARK  133  A    between atoms: _333  and  _336
REMARK  134  A    between atoms: _336  and  _337
REMARK  135  A    between atoms: _342  and  _344
REMARK  136  A    between atoms: _344  and  _345
REMARK  137  A    between atoms: _344  and  _347
REMARK  138  A    between atoms: _347  and  _348
REMARK  139  A    between atoms: _348  and  _349
REMARK  140  A    between atoms: _352  and  _354
REMARK  141  A    between atoms: _354  and  _355
REMARK  142  A    between atoms: _354  and  _357
REMARK  143  A    between atoms: _357  and  _358
REMARK  144  A    between atoms: _360  and  _362
REMARK  145  A    between atoms: _362  and  _363
REMARK  146  A    between atoms: _362  and  _365
REMARK  147  A    between atoms: _365  and  _366
REMARK  148  A    between atoms: _369  and  _371
REMARK  149  A    between atoms: _371  and  _372
REMARK  150  A    between atoms: _371  and  _374
REMARK  151  A    between atoms: _374  and  _375
REMARK  152  A    between atoms: _377  and  _379
REMARK  153  A    between atoms: _379  and  _380
REMARK  154  A    between atoms: _379  and  _382
REMARK  155  A    between atoms: _382  and  _383
REMARK  156  A    between atoms: _386  and  _388
REMARK  157  A    between atoms: _388  and  _389
REMARK  158  A    between atoms: _388  and  _391
REMARK  159  A    between atoms: _391  and  _392
REMARK  160  A    between atoms: _395  and  _397
REMARK  161  A    between atoms: _397  and  _398
REMARK  162  A    between atoms: _397  and  _400
REMARK  163  A    between atoms: _400  and  _401
REMARK  164  A    between atoms: _401  and  _402
REMARK  165  A    between atoms: _407  and  _409
REMARK  166  A    between atoms: _409  and  _410
REMARK  167  A    between atoms: _409  and  _412
REMARK  168  A    between atoms: _412  and  _413
REMARK  169  A    between atoms: _419  and  _421
REMARK  170  A    between atoms: _421  and  _422
REMARK  171  A    between atoms: _421  and  _424
REMARK  172  A    between atoms: _426  and  _428
REMARK  173  A    between atoms: _428  and  _429
REMARK  174  A    between atoms: _432  and  _434
REMARK  175  A    between atoms: _434  and  _435
REMARK  176  A    between atoms: _437  and  _439
REMARK  177  A    between atoms: _439  and  _440
REMARK  178  A    between atoms: _442  and  _444
REMARK  179  A    between atoms: _444  and  _445
REMARK  180  A    between atoms: _444  and  _447
REMARK  181  A    between atoms: _447  and  _448
REMARK  182  A    between atoms: _451  and  _453
REMARK  183  A    between atoms: _453  and  _454
REMARK  184  A    between atoms: _456  and  _458
REMARK  185  A    between atoms: _458  and  _459
REMARK  186  A    between atoms: _458  and  _461
REMARK  187  A    between atoms: _461  and  _462
REMARK  188  A    between atoms: _468  and  _470
REMARK  189  A    between atoms: _470  and  _471
REMARK  190  A    between atoms: _470  and  _473
REMARK  191  A    between atoms: _476  and  _478
REMARK  192  A    between atoms: _478  and  _479
REMARK  193  A    between atoms: _478  and  _481
REMARK  194  A    between atoms: _481  and  _482
REMARK  195  A    between atoms: _485  and  _487
REMARK  196  A    between atoms: _487  and  _488
REMARK  197  A    between atoms: _490  and  _492
REMARK  198  A    between atoms: _492  and  _493
REMARK  199  A    between atoms: _492  and  _495
REMARK  200  A    between atoms: _495  and  _496
REMARK  201  A    between atoms: _496  and  _497
REMARK  202  A    between atoms: _497  and  MG_734
REMARK  203  A    between atoms: _499  and  _501
REMARK  204  A    between atoms: _501  and  _502
REMARK  205  A    between atoms: _504  and  _506
REMARK  206  A    between atoms: _506  and  _507
REMARK  207  A    between atoms: _506  and  _509
REMARK  208  A    between atoms: _509  and  _510
REMARK  209  A    between atoms: _512  and  _514
REMARK  210  A    between atoms: _514  and  _515
REMARK  211  A    between atoms: _518  and  _520
REMARK  212  A    between atoms: _520  and  _521
REMARK  213  A    between atoms: _520  and  _523
REMARK  214  A    between atoms: _523  and  _524
REMARK  215  A    between atoms: _529  and  _531
REMARK  216  A    between atoms: _531  and  _532
REMARK  217  A    between atoms: _531  and  _534
REMARK  218  A    between atoms: _534  and  _535
REMARK  219  A    between atoms: _540  and  _541
REMARK  220  A    between atoms: _543  and  _545
REMARK  221  A    between atoms: _545  and  _546
REMARK  222  A    between atoms: _545  and  _548
REMARK  223  A    between atoms: _548  and  _549
REMARK  224  A    between atoms: _552  and  _554
REMARK  225  A    between atoms: _554  and  _555
REMARK  226  A    between atoms: _554  and  _557
REMARK  227  A    between atoms: _557  and  _558
REMARK  228  A    between atoms: _558  and  _559
REMARK  229  A    between atoms: _561  and  _563
REMARK  230  A    between atoms: _563  and  _564
REMARK  231  A    between atoms: _563  and  _566
REMARK  232  A    between atoms: _566  and  _567
REMARK  233  A    between atoms: _572  and  _574
REMARK  234  A    between atoms: _574  and  _575
REMARK  235  A    between atoms: _574  and  _577
REMARK  236  A    between atoms: _577  and  _578
REMARK  237  A    between atoms: _583  and  _585
REMARK  238  A    between atoms: _585  and  _586
REMARK  239  A    between atoms: _588  and  _590
REMARK  240  A    between atoms: _590  and  _591
REMARK  241  A    between atoms: _590  and  _593
REMARK  242  A    between atoms: _591  and  _592
REMARK  243  A    between atoms: _591  and  _597
REMARK  244  A    between atoms: _592  and  MG_734
REMARK  245  A    between atoms: _593  and  _594
REMARK  246  A    between atoms: _597  and  _599
REMARK  247  A    between atoms: _599  and  _600
REMARK  248  A    between atoms: _599  and  _602
REMARK  249  A    between atoms: _602  and  _603
REMARK  250  A    between atoms: _608  and  _609
REMARK  251  A    between atoms: _611  and  _613
REMARK  252  A    between atoms: _613  and  _614
REMARK  253  A    between atoms: _616  and  _618
REMARK  254  A    between atoms: _618  and  _619
REMARK  255  A    between atoms: _622  and  _624
REMARK  256  A    between atoms: _624  and  _625
REMARK  257  A    between atoms: _624  and  _627
REMARK  258  A    between atoms: _627  and  _628
REMARK  259  A    between atoms: _631  and  _633
REMARK  260  A    between atoms: _633  and  _634
REMARK  261  A    between atoms: _633  and  _636
REMARK  262  A    between atoms: _636  and  _637
REMARK  263  A    between atoms: _637  and  _638
REMARK  264  A    between atoms: _638  and  _639
REMARK  265  A    between atoms: _648  and  _650
REMARK  266  A    between atoms: _650  and  _651
REMARK  267  A    between atoms: _650  and  _653
REMARK  268  A    between atoms: _653  and  _654
REMARK  269  A    between atoms: _664  and  _666
REMARK  270  A    between atoms: _666  and  _667
REMARK  271  A    between atoms: _666  and  _669
REMARK  272  A    between atoms: _669  and  _670
REMARK  273  A    between atoms: _676  and  _678
REMARK  274  A    between atoms: _678  and  _679
REMARK  275  A    between atoms: _681  and  _683
REMARK  276  A    between atoms: _683  and  _684
REMARK  277  A    between atoms: _683  and  _686
REMARK  278  A    between atoms: _686  and  _687
REMARK  279  A    between atoms: _690  and  _692
REMARK  280  A    between atoms: _692  and  _693
REMARK  281  A    between atoms: _692  and  _695
REMARK  282  A    between atoms: _698  and  _700
REMARK  283  A    between atoms: _700  and  _701
REMARK  284  A    between atoms: _700  and  _703
REMARK  285  A    between atoms: _703  and  _704
REMARK  286  A    between atoms: _710  and  _712
REMARK  287  A    between atoms: _712  and  _713
REMARK  288  A    between atoms: _712  and  _715
REMARK  289  A    between atoms: _715  and  _716
REMARK  290  A    between atoms: _719  and  _721
REMARK  291  A    between atoms: _721  and  _722
REMARK  292  A    between atoms: _721  and  _724
REMARK  293  A    between atoms: _728  and  _729
REMARK                            x       y       z     vdW  Elec       q    Type
REMARK                         _______ _______ _______ _____ _____    ______ ____
ROOT
ATOM      1  O   HOH     1      71.096  53.561 152.615  0.00  0.00    +0.000 OA
ENDROOT
TORSDOF 0
REMARK  Name = ../refined-set-2016/3f6e/3f6e_pocket.pdb
REMARK  293 active torsions:
REMARK  status: ('A' for Active; 'I' for Inactive)
REMARK    1  A    between atoms: _1  and  _3
REMARK    2  A    between atoms: _3  and  _4
REMARK    3  A    between atoms: _3  and  _6
REMARK    4  A    between atoms: _6  and  _7
REMARK    5  A    between atoms: _13  and  _14
REMARK    6  A    between atoms: _19  and  _21
REMARK    7  A    between atoms: _21  and  _22
REMARK    8  A    between atoms: _24  and  _26
REMARK    9  A    between atoms: _26  and  _27
REMARK   10  A    between atoms: _26  and  _29
REMARK   11  A    between atoms: _29  and  _30
REMARK   12  A    between atoms: _32  and  _34
REMARK   13  A    between atoms: _34  and  _35
REMARK   14  A    between atoms: _34  and  _37
REMARK   15  A    between atoms: _37  and  _38
REMARK   16  A    between atoms: _43  and  _45
REMARK   17  A    between atoms: _45  and  _46
REMARK   18  A    between atoms: _45  and  _48
REMARK   19  A    between atoms: _48  and  _49
REMARK   20  A    between atoms: _49  and  _50
REMARK   21  A    between atoms: _53  and  _55
REMARK   22  A    between atoms: _55  and  _56
REMARK   23  A    between atoms: _55  and  _58
REMARK   24  A    between atoms: _58  and  _59
REMARK   25  A    between atoms: _62  and  _64
REMARK   26  A    between atoms: _64  and  _65
REMARK   27  A    between atoms: _64  and  _67
REMARK   28  A    between atoms: _67  and  _68
REMARK   29  A    between atoms: _71  and  _73
REMARK   30  A    between atoms: _73  and  _74
REMARK   31  A    between atoms: _77  and  _79
REMARK   32  A    between atoms: _79  and  _80
REMARK   33  A    between atoms: _79  and  _82
REMARK   34  A    between atoms: _82  and  _83
REMARK   35  A    between atoms: _86  and  _88
REMARK   36  A    between atoms: _88  and  _89
REMARK   37  A    between atoms: _88  and  _91
REMARK   38  A    between atoms: _91  and  _92
REMARK   39  A    between atoms: _92  and  _93
REMARK   40  A    between atoms: _98  and  _100
REMARK   41  A    between atoms: _100  and  _101
REMARK   42  A    between atoms: _100  and  _103
REMARK   43  A    between atoms: _103  and  _104
REMARK   44  A    between atoms: _104  and  _105
REMARK   45  A    between atoms: _108  and  _110
REMARK   46  A    between atoms: _110  and  _111
REMARK   47  A    between atoms: _114  and  _116
REMARK   48  A    between atoms: _116  and  _117
REMARK   49  A    between atoms: _116  and  _119
REMARK   50  A    between atoms: _119  and  _120
REMARK   51  A    between atoms: _123  and  _125
REMARK   52  A    between atoms: _125  and  _126
REMARK   53  A    between atoms: _125  and  _128
REMARK   54  A    between atoms: _128  and  _129
REMARK   55  A    between atoms: _134  and  _136
REMARK   56  A    between atoms: _136  and  _137
REMARK   57  A    between atoms: _136  and  _139
REMARK   58  A    between atoms: _139  and  _140
REMARK   59  A    between atoms: _142  and  _144
REMARK   60  A    between atoms: _144  and  _145
REMARK   61  A    between atoms: _148  and  _150
REMARK   62  A    between atoms: _150  and  _151
REMARK   63  A    between atoms: _154  and  _156
REMARK   64  A    between atoms: _156  and  _157
REMARK   65  A    between atoms: _159  and  _161
REMARK   66  A    between atoms: _161  and  _162
REMARK   67  A    between atoms: _161  and  _164
REMARK   68  A    between atoms: _164  and  _165
REMARK   69  A    between atoms: _168  and  _170
REMARK   70  A    between atoms: _170  and  _171
REMARK   71  A    between atoms: _173  and  _175
REMARK   72  A    between atoms: _175  and  _176
REMARK   73  A    between atoms: _175  and  _178
REMARK   74  A    between atoms: _178  and  _179
REMARK   75  A    between atoms: _184  and  _186
REMARK   76  A    between atoms: _186  and  _187
REMARK   77  A    between atoms: _190  and  _192
REMARK   78  A    between atoms: _192  and  _193
REMARK   79  A    between atoms: _192  and  _195
REMARK   80  A    between atoms: _195  and  _196
REMARK   81  A    between atoms: _196  and  _197
REMARK   82  A    between atoms: _202  and  _204
REMARK   83  A    between atoms: _204  and  _205
REMARK   84  A    between atoms: _204  and  _207
REMARK   85  A    between atoms: _207  and  _208
REMARK   86  A    between atoms: _211  and  _213
REMARK   87  A    between atoms: _213  and  _214
REMARK   88  A    between atoms: _213  and  _216
REMARK   89  A    between atoms: _216  and  _217
REMARK   90  A    between atoms: _220  and  _222
REMARK   91  A    between atoms: _222  and  _223
REMARK   92  A    between atoms: _225  and  _227
REMARK   93  A    between atoms: _227  and  _228
REMARK   94  A    between atoms: _231  and  _233
REMARK   95  A    between atoms: _233  and  _234
REMARK   96  A    between atoms: _233  and  _236
REMARK   97  A    between atoms: _236  and  _237
REMARK   98  A    between atoms: _239  and  _241
REMARK   99  A    between atoms: _241  and  _242
REMARK  100  A    between atoms: _241  and  _244
REMARK  101  A    between atoms: _244  and  _245
REMARK  102  A    between atoms: _250  and  _252
REMARK  103  A    between atoms: _252  and  _253
REMARK  104  A    between atoms: _252  and  _255
REMARK  105  A    between atoms: _255  and  _256
REMARK  106  A    between atoms: _258  and  _260
REMARK  107  A    between atoms: _260  and  _261
REMARK  108  A    between atoms: _264  and  _266
REMARK  109  A    between atoms: _266  and  _267
REMARK  110  A    between atoms: _270  and  _272
REMARK  111  A    between atoms: _272  and  _273
REMARK  112  A    between atoms: _272  and  _275
REMARK  113  A    between atoms: _275  and  _276
REMARK  114  A    between atoms: _276  and  _277
REMARK  115  A    between atoms: _277  and  _278
REMARK  116  A    between atoms: _287  and  _289
REMARK  117  A    between atoms: _289  and  _290
REMARK  118  A    between atoms: _289  and  _292
REMARK  119  A    between atoms: _292  and  _293
REMARK  120  A    between atoms: _298  and  _299
REMARK  121  A    between atoms: _301  and  _303
REMARK  122  A    between atoms: _303  and  _304
REMARK  123  A    between atoms: _303  and  _306
REMARK  124  A    between atoms: _306  and  _307
REMARK  125  A    between atoms: _312  and  _314
REMARK  126  A    between atoms: _314  and  _315
REMARK  127  A    between atoms: _314  and  _317
REMARK  128  A    between atoms: _317  and  _318
REMARK  129  A    between atoms: _318  and  _319
REMARK  130  A    between atoms: _325  and  _326
REMARK  131  A    between atoms: _331  and  _333
REMARK  132  A    between atoms: _333  and  _334
REMARK  133  A    between atoms: _333  and  _336
REMARK  134  A    between atoms: _336  and  _337
REMARK  135  A    between atoms: _342  and  _344
REMARK  136  A    between atoms: _344  and  _345
REMARK  137  A    between atoms: _344  and  _347
REMARK  138  A    between atoms: _347  and  _348
REMARK  139  A    between atoms: _348  and  _349
REMARK  140  A    between atoms: _352  and  _354
REMARK  141  A    between atoms: _354  and  _355
REMARK  142  A    between atoms: _354  and  _357
REMARK  143  A    between atoms: _357  and  _358
REMARK  144  A    between atoms: _360  and  _362
REMARK  145  A    between atoms: _362  and  _363
REMARK  146  A    between atoms: _362  and  _365
REMARK  147  A    between atoms: _365  and  _366
REMARK  148  A    between atoms: _369  and  _371
REMARK  149  A    between atoms: _371  and  _372
REMARK  150  A    between atoms: _371  and  _374
REMARK  151  A    between atoms: _374  and  _375
REMARK  152  A    between atoms: _377  and  _379
REMARK  153  A    between atoms: _379  and  _380
REMARK  154  A    between atoms: _379  and  _382
REMARK  155  A    between atoms: _382  and  _383
REMARK  156  A    between atoms: _386  and  _388
REMARK  157  A    between atoms: _388  and  _389
REMARK  158  A    between atoms: _388  and  _391
REMARK  159  A    between atoms: _391  and  _392
REMARK  160  A    between atoms: _395  and  _397
REMARK  161  A    between atoms: _397  and  _398
REMARK  162  A    between atoms: _397  and  _400
REMARK  163  A    between atoms: _400  and  _401
REMARK  164  A    between atoms: _401  and  _402
REMARK  165  A    between atoms: _407  and  _409
REMARK  166  A    between atoms: _409  and  _410
REMARK  167  A    between atoms: _409  and  _412
REMARK  168  A    between atoms: _412  and  _413
REMARK  169  A    between atoms: _419  and  _421
REMARK  170  A    between atoms: _421  and  _422
REMARK  171  A    between atoms: _421  and  _424
REMARK  172  A    between atoms: _426  and  _428
REMARK  173  A    between atoms: _428  and  _429
REMARK  174  A    between atoms: _432  and  _434
REMARK  175  A    between atoms: _434  and  _435
REMARK  176  A    between atoms: _437  and  _439
REMARK  177  A    between atoms: _439  and  _440
REMARK  178  A    between atoms: _442  and  _444
REMARK  179  A    between atoms: _444  and  _445
REMARK  180  A    between atoms: _444  and  _447
REMARK  181  A    between atoms: _447  and  _448
REMARK  182  A    between atoms: _451  and  _453
REMARK  183  A    between atoms: _453  and  _454
REMARK  184  A    between atoms: _456  and  _458
REMARK  185  A    between atoms: _458  and  _459
REMARK  186  A    between atoms: _458  and  _461
REMARK  187  A    between atoms: _461  and  _462
REMARK  188  A    between atoms: _468  and  _470
REMARK  189  A    between atoms: _470  and  _471
REMARK  190  A    between atoms: _470  and  _473
REMARK  191  A    between atoms: _476  and  _478
REMARK  192  A    between atoms: _478  and  _479
REMARK  193  A    between atoms: _478  and  _481
REMARK  194  A    between atoms: _481  and  _482
REMARK  195  A    between atoms: _485  and  _487
REMARK  196  A    between atoms: _487  and  _488
REMARK  197  A    between atoms: _490  and  _492
REMARK  198  A    between atoms: _492  and  _493
REMARK  199  A    between atoms: _492  and  _495
REMARK  200  A    between atoms: _495  and  _496
REMARK  201  A    between atoms: _496  and  _497
REMARK  202  A    between atoms: _497  and  MG_734
REMARK  203  A    between atoms: _499  and  _501
REMARK  204  A    between atoms: _501  and  _502
REMARK  205  A    between atoms: _504  and  _506
REMARK  206  A    between atoms: _506  and  _507
REMARK  207  A    between atoms: _506  and  _509
REMARK  208  A    between atoms: _509  and  _510
REMARK  209  A    between atoms: _512  and  _514
REMARK  210  A    between atoms: _514  and  _515
REMARK  211  A    between atoms: _518  and  _520
REMARK  212  A    between atoms: _520  and  _521
REMARK  213  A    between atoms: _520  and  _523
REMARK  214  A    between atoms: _523  and  _524
REMARK  215  A    between atoms: _529  and  _531
REMARK  216  A    between atoms: _531  and  _532
REMARK  217  A    between atoms: _531  and  _534
REMARK  218  A    between atoms: _534  and  _535
REMARK  219  A    between atoms: _540  and  _541
REMARK  220  A    between atoms: _543  and  _545
REMARK  221  A    between atoms: _545  and  _546
REMARK  222  A    between atoms: _545  and  _548
REMARK  223  A    between atoms: _548  and  _549
REMARK  224  A    between atoms: _552  and  _554
REMARK  225  A    between atoms: _554  and  _555
REMARK  226  A    between atoms: _554  and  _557
REMARK  227  A    between atoms: _557  and  _558
REMARK  228  A    between atoms: _558  and  _559
REMARK  229  A    between atoms: _561  and  _563
REMARK  230  A    between atoms: _563  and  _564
REMARK  231  A    between atoms: _563  and  _566
REMARK  232  A    between atoms: _566  and  _567
REMARK  233  A    between atoms: _572  and  _574
REMARK  234  A    between atoms: _574  and  _575
REMARK  235  A    between atoms: _574  and  _577
REMARK  236  A    between atoms: _577  and  _578
REMARK  237  A    between atoms: _583  and  _585
REMARK  238  A    between atoms: _585  and  _586
REMARK  239  A    between atoms: _588  and  _590
REMARK  240  A    between atoms: _590  and  _591
REMARK  241  A    between atoms: _590  and  _593
REMARK  242  A    between atoms: _591  and  _592
REMARK  243  A    between atoms: _591  and  _597
REMARK  244  A    between atoms: _592  and  MG_734
REMARK  245  A    between atoms: _593  and  _594
REMARK  246  A    between atoms: _597  and  _599
REMARK  247  A    between atoms: _599  and  _600
REMARK  248  A    between atoms: _599  and  _602
REMARK  249  A    between atoms: _602  and  _603
REMARK  250  A    between atoms: _608  and  _609
REMARK  251  A    between atoms: _611  and  _613
REMARK  252  A    between atoms: _613  and  _614
REMARK  253  A    between atoms: _616  and  _618
REMARK  254  A    between atoms: _618  and  _619
REMARK  255  A    between atoms: _622  and  _624
REMARK  256  A    between atoms: _624  and  _625
REMARK  257  A    between atoms: _624  and  _627
REMARK  258  A    between atoms: _627  and  _628
REMARK  259  A    between atoms: _631  and  _633
REMARK  260  A    between atoms: _633  and  _634
REMARK  261  A    between atoms: _633  and  _636
REMARK  262  A    between atoms: _636  and  _637
REMARK  263  A    between atoms: _637  and  _638
REMARK  264  A    between atoms: _638  and  _639
REMARK  265  A    between atoms: _648  and  _650
REMARK  266  A    between atoms: _650  and  _651
REMARK  267  A    between atoms: _650  and  _653
REMARK  268  A    between atoms: _653  and  _654
REMARK  269  A    between atoms: _664  and  _666
REMARK  270  A    between atoms: _666  and  _667
REMARK  271  A    between atoms: _666  and  _669
REMARK  272  A    between atoms: _669  and  _670
REMARK  273  A    between atoms: _676  and  _678
REMARK  274  A    between atoms: _678  and  _679
REMARK  275  A    between atoms: _681  and  _683
REMARK  276  A    between atoms: _683  and  _684
REMARK  277  A    between atoms: _683  and  _686
REMARK  278  A    between atoms: _686  and  _687
REMARK  279  A    between atoms: _690  and  _692
REMARK  280  A    between atoms: _692  and  _693
REMARK  281  A    between atoms: _692  and  _695
REMARK  282  A    between atoms: _698  and  _700
REMARK  283  A    between atoms: _700  and  _701
REMARK  284  A    between atoms: _700  and  _703
REMARK  285  A    between atoms: _703  and  _704
REMARK  286  A    between atoms: _710  and  _712
REMARK  287  A    between atoms: _712  and  _713
REMARK  288  A    between atoms: _712  and  _715
REMARK  289  A    between atoms: _715  and  _716
REMARK  290  A    between atoms: _719  and  _721
REMARK  291  A    between atoms: _721  and  _722
REMARK  292  A    between atoms: _721  and  _724
REMARK  293  A    between atoms: _728  and  _729
REMARK                            x       y       z     vdW  Elec       q    Type
REMARK                         _______ _______ _______ _____ _____    ______ ____
ROOT
ATOM      1  O   HOH     1      75.915  53.345 158.047  0.00  0.00    +0.000 OA
ENDROOT
TORSDOF 0
REMARK  Name = ../refined-set-2016/3f6e/3f6e_pocket.pdb
REMARK  293 active torsions:
REMARK  status: ('A' for Active; 'I' for Inactive)
REMARK    1  A    between atoms: _1  and  _3
REMARK    2  A    between atoms: _3  and  _4
REMARK    3  A    between atoms: _3  and  _6
REMARK    4  A    between atoms: _6  and  _7
REMARK    5  A    between atoms: _13  and  _14
REMARK    6  A    between atoms: _19  and  _21
REMARK    7  A    between atoms: _21  and  _22
REMARK    8  A    between atoms: _24  and  _26
REMARK    9  A    between atoms: _26  and  _27
REMARK   10  A    between atoms: _26  and  _29
REMARK   11  A    between atoms: _29  and  _30
REMARK   12  A    between atoms: _32  and  _34
REMARK   13  A    between atoms: _34  and  _35
REMARK   14  A    between atoms: _34  and  _37
REMARK   15  A    between atoms: _37  and  _38
REMARK   16  A    between atoms: _43  and  _45
REMARK   17  A    between atoms: _45  and  _46
REMARK   18  A    between atoms: _45  and  _48
REMARK   19  A    between atoms: _48  and  _49
REMARK   20  A    between atoms: _49  and  _50
REMARK   21  A    between atoms: _53  and  _55
REMARK   22  A    between atoms: _55  and  _56
REMARK   23  A    between atoms: _55  and  _58
REMARK   24  A    between atoms: _58  and  _59
REMARK   25  A    between atoms: _62  and  _64
REMARK   26  A    between atoms: _64  and  _65
REMARK   27  A    between atoms: _64  and  _67
REMARK   28  A    between atoms: _67  and  _68
REMARK   29  A    between atoms: _71  and  _73
REMARK   30  A    between atoms: _73  and  _74
REMARK   31  A    between atoms: _77  and  _79
REMARK   32  A    between atoms: _79  and  _80
REMARK   33  A    between atoms: _79  and  _82
REMARK   34  A    between atoms: _82  and  _83
REMARK   35  A    between atoms: _86  and  _88
REMARK   36  A    between atoms: _88  and  _89
REMARK   37  A    between atoms: _88  and  _91
REMARK   38  A    between atoms: _91  and  _92
REMARK   39  A    between atoms: _92  and  _93
REMARK   40  A    between atoms: _98  and  _100
REMARK   41  A    between atoms: _100  and  _101
REMARK   42  A    between atoms: _100  and  _103
REMARK   43  A    between atoms: _103  and  _104
REMARK   44  A    between atoms: _104  and  _105
REMARK   45  A    between atoms: _108  and  _110
REMARK   46  A    between atoms: _110  and  _111
REMARK   47  A    between atoms: _114  and  _116
REMARK   48  A    between atoms: _116  and  _117
REMARK   49  A    between atoms: _116  and  _119
REMARK   50  A    between atoms: _119  and  _120
REMARK   51  A    between atoms: _123  and  _125
REMARK   52  A    between atoms: _125  and  _126
REMARK   53  A    between atoms: _125  and  _128
REMARK   54  A    between atoms: _128  and  _129
REMARK   55  A    between atoms: _134  and  _136
REMARK   56  A    between atoms: _136  and  _137
REMARK   57  A    between atoms: _136  and  _139
REMARK   58  A    between atoms: _139  and  _140
REMARK   59  A    between atoms: _142  and  _144
REMARK   60  A    between atoms: _144  and  _145
REMARK   61  A    between atoms: _148  and  _150
REMARK   62  A    between atoms: _150  and  _151
REMARK   63  A    between atoms: _154  and  _156
REMARK   64  A    between atoms: _156  and  _157
REMARK   65  A    between atoms: _159  and  _161
REMARK   66  A    between atoms: _161  and  _162
REMARK   67  A    between atoms: _161  and  _164
REMARK   68  A    between atoms: _164  and  _165
REMARK   69  A    between atoms: _168  and  _170
REMARK   70  A    between atoms: _170  and  _171
REMARK   71  A    between atoms: _173  and  _175
REMARK   72  A    between atoms: _175  and  _176
REMARK   73  A    between atoms: _175  and  _178
REMARK   74  A    between atoms: _178  and  _179
REMARK   75  A    between atoms: _184  and  _186
REMARK   76  A    between atoms: _186  and  _187
REMARK   77  A    between atoms: _190  and  _192
REMARK   78  A    between atoms: _192  and  _193
REMARK   79  A    between atoms: _192  and  _195
REMARK   80  A    between atoms: _195  and  _196
REMARK   81  A    between atoms: _196  and  _197
REMARK   82  A    between atoms: _202  and  _204
REMARK   83  A    between atoms: _204  and  _205
REMARK   84  A    between atoms: _204  and  _207
REMARK   85  A    between atoms: _207  and  _208
REMARK   86  A    between atoms: _211  and  _213
REMARK   87  A    between atoms: _213  and  _214
REMARK   88  A    between atoms: _213  and  _216
REMARK   89  A    between atoms: _216  and  _217
REMARK   90  A    between atoms: _220  and  _222
REMARK   91  A    between atoms: _222  and  _223
REMARK   92  A    between atoms: _225  and  _227
REMARK   93  A    between atoms: _227  and  _228
REMARK   94  A    between atoms: _231  and  _233
REMARK   95  A    between atoms: _233  and  _234
REMARK   96  A    between atoms: _233  and  _236
REMARK   97  A    between atoms: _236  and  _237
REMARK   98  A    between atoms: _239  and  _241
REMARK   99  A    between atoms: _241  and  _242
REMARK  100  A    between atoms: _241  and  _244
REMARK  101  A    between atoms: _244  and  _245
REMARK  102  A    between atoms: _250  and  _252
REMARK  103  A    between atoms: _252  and  _253
REMARK  104  A    between atoms: _252  and  _255
REMARK  105  A    between atoms: _255  and  _256
REMARK  106  A    between atoms: _258  and  _260
REMARK  107  A    between atoms: _260  and  _261
REMARK  108  A    between atoms: _264  and  _266
REMARK  109  A    between atoms: _266  and  _267
REMARK  110  A    between atoms: _270  and  _272
REMARK  111  A    between atoms: _272  and  _273
REMARK  112  A    between atoms: _272  and  _275
REMARK  113  A    between atoms: _275  and  _276
REMARK  114  A    between atoms: _276  and  _277
REMARK  115  A    between atoms: _277  and  _278
REMARK  116  A    between atoms: _287  and  _289
REMARK  117  A    between atoms: _289  and  _290
REMARK  118  A    between atoms: _289  and  _292
REMARK  119  A    between atoms: _292  and  _293
REMARK  120  A    between atoms: _298  and  _299
REMARK  121  A    between atoms: _301  and  _303
REMARK  122  A    between atoms: _303  and  _304
REMARK  123  A    between atoms: _303  and  _306
REMARK  124  A    between atoms: _306  and  _307
REMARK  125  A    between atoms: _312  and  _314
REMARK  126  A    between atoms: _314  and  _315
REMARK  127  A    between atoms: _314  and  _317
REMARK  128  A    between atoms: _317  and  _318
REMARK  129  A    between atoms: _318  and  _319
REMARK  130  A    between atoms: _325  and  _326
REMARK  131  A    between atoms: _331  and  _333
REMARK  132  A    between atoms: _333  and  _334
REMARK  133  A    between atoms: _333  and  _336
REMARK  134  A    between atoms: _336  and  _337
REMARK  135  A    between atoms: _342  and  _344
REMARK  136  A    between atoms: _344  and  _345
REMARK  137  A    between atoms: _344  and  _347
REMARK  138  A    between atoms: _347  and  _348
REMARK  139  A    between atoms: _348  and  _349
REMARK  140  A    between atoms: _352  and  _354
REMARK  141  A    between atoms: _354  and  _355
REMARK  142  A    between atoms: _354  and  _357
REMARK  143  A    between atoms: _357  and  _358
REMARK  144  A    between atoms: _360  and  _362
REMARK  145  A    between atoms: _362  and  _363
REMARK  146  A    between atoms: _362  and  _365
REMARK  147  A    between atoms: _365  and  _366
REMARK  148  A    between atoms: _369  and  _371
REMARK  149  A    between atoms: _371  and  _372
REMARK  150  A    between atoms: _371  and  _374
REMARK  151  A    between atoms: _374  and  _375
REMARK  152  A    between atoms: _377  and  _379
REMARK  153  A    between atoms: _379  and  _380
REMARK  154  A    between atoms: _379  and  _382
REMARK  155  A    between atoms: _382  and  _383
REMARK  156  A    between atoms: _386  and  _388
REMARK  157  A    between atoms: _388  and  _389
REMARK  158  A    between atoms: _388  and  _391
REMARK  159  A    between atoms: _391  and  _392
REMARK  160  A    between atoms: _395  and  _397
REMARK  161  A    between atoms: _397  and  _398
REMARK  162  A    between atoms: _397  and  _400
REMARK  163  A    between atoms: _400  and  _401
REMARK  164  A    between atoms: _401  and  _402
REMARK  165  A    between atoms: _407  and  _409
REMARK  166  A    between atoms: _409  and  _410
REMARK  167  A    between atoms: _409  and  _412
REMARK  168  A    between atoms: _412  and  _413
REMARK  169  A    between atoms: _419  and  _421
REMARK  170  A    between atoms: _421  and  _422
REMARK  171  A    between atoms: _421  and  _424
REMARK  172  A    between atoms: _426  and  _428
REMARK  173  A    between atoms: _428  and  _429
REMARK  174  A    between atoms: _432  and  _434
REMARK  175  A    between atoms: _434  and  _435
REMARK  176  A    between atoms: _437  and  _439
REMARK  177  A    between atoms: _439  and  _440
REMARK  178  A    between atoms: _442  and  _444
REMARK  179  A    between atoms: _444  and  _445
REMARK  180  A    between atoms: _444  and  _447
REMARK  181  A    between atoms: _447  and  _448
REMARK  182  A    between atoms: _451  and  _453
REMARK  183  A    between atoms: _453  and  _454
REMARK  184  A    between atoms: _456  and  _458
REMARK  185  A    between atoms: _458  and  _459
REMARK  186  A    between atoms: _458  and  _461
REMARK  187  A    between atoms: _461  and  _462
REMARK  188  A    between atoms: _468  and  _470
REMARK  189  A    between atoms: _470  and  _471
REMARK  190  A    between atoms: _470  and  _473
REMARK  191  A    between atoms: _476  and  _478
REMARK  192  A    between atoms: _478  and  _479
REMARK  193  A    between atoms: _478  and  _481
REMARK  194  A    between atoms: _481  and  _482
REMARK  195  A    between atoms: _485  and  _487
REMARK  196  A    between atoms: _487  and  _488
REMARK  197  A    between atoms: _490  and  _492
REMARK  198  A    between atoms: _492  and  _493
REMARK  199  A    between atoms: _492  and  _495
REMARK  200  A    between atoms: _495  and  _496
REMARK  201  A    between atoms: _496  and  _497
REMARK  202  A    between atoms: _497  and  MG_734
REMARK  203  A    between atoms: _499  and  _501
REMARK  204  A    between atoms: _501  and  _502
REMARK  205  A    between atoms: _504  and  _506
REMARK  206  A    between atoms: _506  and  _507
REMARK  207  A    between atoms: _506  and  _509
REMARK  208  A    between atoms: _509  and  _510
REMARK  209  A    between atoms: _512  and  _514
REMARK  210  A    between atoms: _514  and  _515
REMARK  211  A    between atoms: _518  and  _520
REMARK  212  A    between atoms: _520  and  _521
REMARK  213  A    between atoms: _520  and  _523
REMARK  214  A    between atoms: _523  and  _524
REMARK  215  A    between atoms: _529  and  _531
REMARK  216  A    between atoms: _531  and  _532
REMARK  217  A    between atoms: _531  and  _534
REMARK  218  A    between atoms: _534  and  _535
REMARK  219  A    between atoms: _540  and  _541
REMARK  220  A    between atoms: _543  and  _545
REMARK  221  A    between atoms: _545  and  _546
REMARK  222  A    between atoms: _545  and  _548
REMARK  223  A    between atoms: _548  and  _549
REMARK  224  A    between atoms: _552  and  _554
REMARK  225  A    between atoms: _554  and  _555
REMARK  226  A    between atoms: _554  and  _557
REMARK  227  A    between atoms: _557  and  _558
REMARK  228  A    between atoms: _558  and  _559
REMARK  229  A    between atoms: _561  and  _563
REMARK  230  A    between atoms: _563  and  _564
REMARK  231  A    between atoms: _563  and  _566
REMARK  232  A    between atoms: _566  and  _567
REMARK  233  A    between atoms: _572  and  _574
REMARK  234  A    between atoms: _574  and  _575
REMARK  235  A    between atoms: _574  and  _577
REMARK  236  A    between atoms: _577  and  _578
REMARK  237  A    between atoms: _583  and  _585
REMARK  238  A    between atoms: _585  and  _586
REMARK  239  A    between atoms: _588  and  _590
REMARK  240  A    between atoms: _590  and  _591
REMARK  241  A    between atoms: _590  and  _593
REMARK  242  A    between atoms: _591  and  _592
REMARK  243  A    between atoms: _591  and  _597
REMARK  244  A    between atoms: _592  and  MG_734
REMARK  245  A    between atoms: _593  and  _594
REMARK  246  A    between atoms: _597  and  _599
REMARK  247  A    between atoms: _599  and  _600
REMARK  248  A    between atoms: _599  and  _602
REMARK  249  A    between atoms: _602  and  _603
REMARK  250  A    between atoms: _608  and  _609
REMARK  251  A    between atoms: _611  and  _613
REMARK  252  A    between atoms: _613  and  _614
REMARK  253  A    between atoms: _616  and  _618
REMARK  254  A    between atoms: _618  and  _619
REMARK  255  A    between atoms: _622  and  _624
REMARK  256  A    between atoms: _624  and  _625
REMARK  257  A    between atoms: _624  and  _627
REMARK  258  A    between atoms: _627  and  _628
REMARK  259  A    between atoms: _631  and  _633
REMARK  260  A    between atoms: _633  and  _634
REMARK  261  A    between atoms: _633  and  _636
REMARK  262  A    between atoms: _636  and  _637
REMARK  263  A    between atoms: _637  and  _638
REMARK  264  A    between atoms: _638  and  _639
REMARK  265  A    between atoms: _648  and  _650
REMARK  266  A    between atoms: _650  and  _651
REMARK  267  A    between atoms: _650  and  _653
REMARK  268  A    between atoms: _653  and  _654
REMARK  269  A    between atoms: _664  and  _666
REMARK  270  A    between atoms: _666  and  _667
REMARK  271  A    between atoms: _666  and  _669
REMARK  272  A    between atoms: _669  and  _670
REMARK  273  A    between atoms: _676  and  _678
REMARK  274  A    between atoms: _678  and  _679
REMARK  275  A    between atoms: _681  and  _683
REMARK  276  A    between atoms: _683  and  _684
REMARK  277  A    between atoms: _683  and  _686
REMARK  278  A    between atoms: _686  and  _687
REMARK  279  A    between atoms: _690  and  _692
REMARK  280  A    between atoms: _692  and  _693
REMARK  281  A    between atoms: _692  and  _695
REMARK  282  A    between atoms: _698  and  _700
REMARK  283  A    between atoms: _700  and  _701
REMARK  284  A    between atoms: _700  and  _703
REMARK  285  A    between atoms: _703  and  _704
REMARK  286  A    between atoms: _710  and  _712
REMARK  287  A    between atoms: _712  and  _713
REMARK  288  A    between atoms: _712  and  _715
REMARK  289  A    between atoms: _715  and  _716
REMARK  290  A    between atoms: _719  and  _721
REMARK  291  A    between atoms: _721  and  _722
REMARK  292  A    between atoms: _721  and  _724
REMARK  293  A    between atoms: _728  and  _729
REMARK                            x       y       z     vdW  Elec       q    Type
REMARK                         _______ _______ _______ _____ _____    ______ ____
ROOT
ATOM      1  O   HOH     1      71.636  48.687 166.684  0.00  0.00    +0.000 OA
ENDROOT
TORSDOF 0
REMARK  Name = ../refined-set-2016/3f6e/3f6e_pocket.pdb
REMARK  293 active torsions:
REMARK  status: ('A' for Active; 'I' for Inactive)
REMARK    1  A    between atoms: _1  and  _3
REMARK    2  A    between atoms: _3  and  _4
REMARK    3  A    between atoms: _3  and  _6
REMARK    4  A    between atoms: _6  and  _7
REMARK    5  A    between atoms: _13  and  _14
REMARK    6  A    between atoms: _19  and  _21
REMARK    7  A    between atoms: _21  and  _22
REMARK    8  A    between atoms: _24  and  _26
REMARK    9  A    between atoms: _26  and  _27
REMARK   10  A    between atoms: _26  and  _29
REMARK   11  A    between atoms: _29  and  _30
REMARK   12  A    between atoms: _32  and  _34
REMARK   13  A    between atoms: _34  and  _35
REMARK   14  A    between atoms: _34  and  _37
REMARK   15  A    between atoms: _37  and  _38
REMARK   16  A    between atoms: _43  and  _45
REMARK   17  A    between atoms: _45  and  _46
REMARK   18  A    between atoms: _45  and  _48
REMARK   19  A    between atoms: _48  and  _49
REMARK   20  A    between atoms: _49  and  _50
REMARK   21  A    between atoms: _53  and  _55
REMARK   22  A    between atoms: _55  and  _56
REMARK   23  A    between atoms: _55  and  _58
REMARK   24  A    between atoms: _58  and  _59
REMARK   25  A    between atoms: _62  and  _64
REMARK   26  A    between atoms: _64  and  _65
REMARK   27  A    between atoms: _64  and  _67
REMARK   28  A    between atoms: _67  and  _68
REMARK   29  A    between atoms: _71  and  _73
REMARK   30  A    between atoms: _73  and  _74
REMARK   31  A    between atoms: _77  and  _79
REMARK   32  A    between atoms: _79  and  _80
REMARK   33  A    between atoms: _79  and  _82
REMARK   34  A    between atoms: _82  and  _83
REMARK   35  A    between atoms: _86  and  _88
REMARK   36  A    between atoms: _88  and  _89
REMARK   37  A    between atoms: _88  and  _91
REMARK   38  A    between atoms: _91  and  _92
REMARK   39  A    between atoms: _92  and  _93
REMARK   40  A    between atoms: _98  and  _100
REMARK   41  A    between atoms: _100  and  _101
REMARK   42  A    between atoms: _100  and  _103
REMARK   43  A    between atoms: _103  and  _104
REMARK   44  A    between atoms: _104  and  _105
REMARK   45  A    between atoms: _108  and  _110
REMARK   46  A    between atoms: _110  and  _111
REMARK   47  A    between atoms: _114  and  _116
REMARK   48  A    between atoms: _116  and  _117
REMARK   49  A    between atoms: _116  and  _119
REMARK   50  A    between atoms: _119  and  _120
REMARK   51  A    between atoms: _123  and  _125
REMARK   52  A    between atoms: _125  and  _126
REMARK   53  A    between atoms: _125  and  _128
REMARK   54  A    between atoms: _128  and  _129
REMARK   55  A    between atoms: _134  and  _136
REMARK   56  A    between atoms: _136  and  _137
REMARK   57  A    between atoms: _136  and  _139
REMARK   58  A    between atoms: _139  and  _140
REMARK   59  A    between atoms: _142  and  _144
REMARK   60  A    between atoms: _144  and  _145
REMARK   61  A    between atoms: _148  and  _150
REMARK   62  A    between atoms: _150  and  _151
REMARK   63  A    between atoms: _154  and  _156
REMARK   64  A    between atoms: _156  and  _157
REMARK   65  A    between atoms: _159  and  _161
REMARK   66  A    between atoms: _161  and  _162
REMARK   67  A    between atoms: _161  and  _164
REMARK   68  A    between atoms: _164  and  _165
REMARK   69  A    between atoms: _168  and  _170
REMARK   70  A    between atoms: _170  and  _171
REMARK   71  A    between atoms: _173  and  _175
REMARK   72  A    between atoms: _175  and  _176
REMARK   73  A    between atoms: _175  and  _178
REMARK   74  A    between atoms: _178  and  _179
REMARK   75  A    between atoms: _184  and  _186
REMARK   76  A    between atoms: _186  and  _187
REMARK   77  A    between atoms: _190  and  _192
REMARK   78  A    between atoms: _192  and  _193
REMARK   79  A    between atoms: _192  and  _195
REMARK   80  A    between atoms: _195  and  _196
REMARK   81  A    between atoms: _196  and  _197
REMARK   82  A    between atoms: _202  and  _204
REMARK   83  A    between atoms: _204  and  _205
REMARK   84  A    between atoms: _204  and  _207
REMARK   85  A    between atoms: _207  and  _208
REMARK   86  A    between atoms: _211  and  _213
REMARK   87  A    between atoms: _213  and  _214
REMARK   88  A    between atoms: _213  and  _216
REMARK   89  A    between atoms: _216  and  _217
REMARK   90  A    between atoms: _220  and  _222
REMARK   91  A    between atoms: _222  and  _223
REMARK   92  A    between atoms: _225  and  _227
REMARK   93  A    between atoms: _227  and  _228
REMARK   94  A    between atoms: _231  and  _233
REMARK   95  A    between atoms: _233  and  _234
REMARK   96  A    between atoms: _233  and  _236
REMARK   97  A    between atoms: _236  and  _237
REMARK   98  A    between atoms: _239  and  _241
REMARK   99  A    between atoms: _241  and  _242
REMARK  100  A    between atoms: _241  and  _244
REMARK  101  A    between atoms: _244  and  _245
REMARK  102  A    between atoms: _250  and  _252
REMARK  103  A    between atoms: _252  and  _253
REMARK  104  A    between atoms: _252  and  _255
REMARK  105  A    between atoms: _255  and  _256
REMARK  106  A    between atoms: _258  and  _260
REMARK  107  A    between atoms: _260  and  _261
REMARK  108  A    between atoms: _264  and  _266
REMARK  109  A    between atoms: _266  and  _267
REMARK  110  A    between atoms: _270  and  _272
REMARK  111  A    between atoms: _272  and  _273
REMARK  112  A    between atoms: _272  and  _275
REMARK  113  A    between atoms: _275  and  _276
REMARK  114  A    between atoms: _276  and  _277
REMARK  115  A    between atoms: _277  and  _278
REMARK  116  A    between atoms: _287  and  _289
REMARK  117  A    between atoms: _289  and  _290
REMARK  118  A    between atoms: _289  and  _292
REMARK  119  A    between atoms: _292  and  _293
REMARK  120  A    between atoms: _298  and  _299
REMARK  121  A    between atoms: _301  and  _303
REMARK  122  A    between atoms: _303  and  _304
REMARK  123  A    between atoms: _303  and  _306
REMARK  124  A    between atoms: _306  and  _307
REMARK  125  A    between atoms: _312  and  _314
REMARK  126  A    between atoms: _314  and  _315
REMARK  127  A    between atoms: _314  and  _317
REMARK  128  A    between atoms: _317  and  _318
REMARK  129  A    between atoms: _318  and  _319
REMARK  130  A    between atoms: _325  and  _326
REMARK  131  A    between atoms: _331  and  _333
REMARK  132  A    between atoms: _333  and  _334
REMARK  133  A    between atoms: _333  and  _336
REMARK  134  A    between atoms: _336  and  _337
REMARK  135  A    between atoms: _342  and  _344
REMARK  136  A    between atoms: _344  and  _345
REMARK  137  A    between atoms: _344  and  _347
REMARK  138  A    between atoms: _347  and  _348
REMARK  139  A    between atoms: _348  and  _349
REMARK  140  A    between atoms: _352  and  _354
REMARK  141  A    between atoms: _354  and  _355
REMARK  142  A    between atoms: _354  and  _357
REMARK  143  A    between atoms: _357  and  _358
REMARK  144  A    between atoms: _360  and  _362
REMARK  145  A    between atoms: _362  and  _363
REMARK  146  A    between atoms: _362  and  _365
REMARK  147  A    between atoms: _365  and  _366
REMARK  148  A    between atoms: _369  and  _371
REMARK  149  A    between atoms: _371  and  _372
REMARK  150  A    between atoms: _371  and  _374
REMARK  151  A    between atoms: _374  and  _375
REMARK  152  A    between atoms: _377  and  _379
REMARK  153  A    between atoms: _379  and  _380
REMARK  154  A    between atoms: _379  and  _382
REMARK  155  A    between atoms: _382  and  _383
REMARK  156  A    between atoms: _386  and  _388
REMARK  157  A    between atoms: _388  and  _389
REMARK  158  A    between atoms: _388  and  _391
REMARK  159  A    between atoms: _391  and  _392
REMARK  160  A    between atoms: _395  and  _397
REMARK  161  A    between atoms: _397  and  _398
REMARK  162  A    between atoms: _397  and  _400
REMARK  163  A    between atoms: _400  and  _401
REMARK  164  A    between atoms: _401  and  _402
REMARK  165  A    between atoms: _407  and  _409
REMARK  166  A    between atoms: _409  and  _410
REMARK  167  A    between atoms: _409  and  _412
REMARK  168  A    between atoms: _412  and  _413
REMARK  169  A    between atoms: _419  and  _421
REMARK  170  A    between atoms: _421  and  _422
REMARK  171  A    between atoms: _421  and  _424
REMARK  172  A    between atoms: _426  and  _428
REMARK  173  A    between atoms: _428  and  _429
REMARK  174  A    between atoms: _432  and  _434
REMARK  175  A    between atoms: _434  and  _435
REMARK  176  A    between atoms: _437  and  _439
REMARK  177  A    between atoms: _439  and  _440
REMARK  178  A    between atoms: _442  and  _444
REMARK  179  A    between atoms: _444  and  _445
REMARK  180  A    between atoms: _444  and  _447
REMARK  181  A    between atoms: _447  and  _448
REMARK  182  A    between atoms: _451  and  _453
REMARK  183  A    between atoms: _453  and  _454
REMARK  184  A    between atoms: _456  and  _458
REMARK  185  A    between atoms: _458  and  _459
REMARK  186  A    between atoms: _458  and  _461
REMARK  187  A    between atoms: _461  and  _462
REMARK  188  A    between atoms: _468  and  _470
REMARK  189  A    between atoms: _470  and  _471
REMARK  190  A    between atoms: _470  and  _473
REMARK  191  A    between atoms: _476  and  _478
REMARK  192  A    between atoms: _478  and  _479
REMARK  193  A    between atoms: _478  and  _481
REMARK  194  A    between atoms: _481  and  _482
REMARK  195  A    between atoms: _485  and  _487
REMARK  196  A    between atoms: _487  and  _488
REMARK  197  A    between atoms: _490  and  _492
REMARK  198  A    between atoms: _492  and  _493
REMARK  199  A    between atoms: _492  and  _495
REMARK  200  A    between atoms: _495  and  _496
REMARK  201  A    between atoms: _496  and  _497
REMARK  202  A    between atoms: _497  and  MG_734
REMARK  203  A    between atoms: _499  and  _501
REMARK  204  A    between atoms: _501  and  _502
REMARK  205  A    between atoms: _504  and  _506
REMARK  206  A    between atoms: _506  and  _507
REMARK  207  A    between atoms: _506  and  _509
REMARK  208  A    between atoms: _509  and  _510
REMARK  209  A    between atoms: _512  and  _514
REMARK  210  A    between atoms: _514  and  _515
REMARK  211  A    between atoms: _518  and  _520
REMARK  212  A    between atoms: _520  and  _521
REMARK  213  A    between atoms: _520  and  _523
REMARK  214  A    between atoms: _523  and  _524
REMARK  215  A    between atoms: _529  and  _531
REMARK  216  A    between atoms: _531  and  _532
REMARK  217  A    between atoms: _531  and  _534
REMARK  218  A    between atoms: _534  and  _535
REMARK  219  A    between atoms: _540  and  _541
REMARK  220  A    between atoms: _543  and  _545
REMARK  221  A    between atoms: _545  and  _546
REMARK  222  A    between atoms: _545  and  _548
REMARK  223  A    between atoms: _548  and  _549
REMARK  224  A    between atoms: _552  and  _554
REMARK  225  A    between atoms: _554  and  _555
REMARK  226  A    between atoms: _554  and  _557
REMARK  227  A    between atoms: _557  and  _558
REMARK  228  A    between atoms: _558  and  _559
REMARK  229  A    between atoms: _561  and  _563
REMARK  230  A    between atoms: _563  and  _564
REMARK  231  A    between atoms: _563  and  _566
REMARK  232  A    between atoms: _566  and  _567
REMARK  233  A    between atoms: _572  and  _574
REMARK  234  A    between atoms: _574  and  _575
REMARK  235  A    between atoms: _574  and  _577
REMARK  236  A    between atoms: _577  and  _578
REMARK  237  A    between atoms: _583  and  _585
REMARK  238  A    between atoms: _585  and  _586
REMARK  239  A    between atoms: _588  and  _590
REMARK  240  A    between atoms: _590  and  _591
REMARK  241  A    between atoms: _590  and  _593
REMARK  242  A    between atoms: _591  and  _592
REMARK  243  A    between atoms: _591  and  _597
REMARK  244  A    between atoms: _592  and  MG_734
REMARK  245  A    between atoms: _593  and  _594
REMARK  246  A    between atoms: _597  and  _599
REMARK  247  A    between atoms: _599  and  _600
REMARK  248  A    between atoms: _599  and  _602
REMARK  249  A    between atoms: _602  and  _603
REMARK  250  A    between atoms: _608  and  _609
REMARK  251  A    between atoms: _611  and  _613
REMARK  252  A    between atoms: _613  and  _614
REMARK  253  A    between atoms: _616  and  _618
REMARK  254  A    between atoms: _618  and  _619
REMARK  255  A    between atoms: _622  and  _624
REMARK  256  A    between atoms: _624  and  _625
REMARK  257  A    between atoms: _624  and  _627
REMARK  258  A    between atoms: _627  and  _628
REMARK  259  A    between atoms: _631  and  _633
REMARK  260  A    between atoms: _633  and  _634
REMARK  261  A    between atoms: _633  and  _636
REMARK  262  A    between atoms: _636  and  _637
REMARK  263  A    between atoms: _637  and  _638
REMARK  264  A    between atoms: _638  and  _639
REMARK  265  A    between atoms: _648  and  _650
REMARK  266  A    between atoms: _650  and  _651
REMARK  267  A    between atoms: _650  and  _653
REMARK  268  A    between atoms: _653  and  _654
REMARK  269  A    between atoms: _664  and  _666
REMARK  270  A    between atoms: _666  and  _667
REMARK  271  A    between atoms: _666  and  _669
REMARK  272  A    between atoms: _669  and  _670
REMARK  273  A    between atoms: _676  and  _678
REMARK  274  A    between atoms: _678  and  _679
REMARK  275  A    between atoms: _681  and  _683
REMARK  276  A    between atoms: _683  and  _684
REMARK  277  A    between atoms: _683  and  _686
REMARK  278  A    between atoms: _686  and  _687
REMARK  279  A    between atoms: _690  and  _692
REMARK  280  A    between atoms: _692  and  _693
REMARK  281  A    between atoms: _692  and  _695
REMARK  282  A    between atoms: _698  and  _700
REMARK  283  A    between atoms: _700  and  _701
REMARK  284  A    between atoms: _700  and  _703
REMARK  285  A    between atoms: _703  and  _704
REMARK  286  A    between atoms: _710  and  _712
REMARK  287  A    between atoms: _712  and  _713
REMARK  288  A    between atoms: _712  and  _715
REMARK  289  A    between atoms: _715  and  _716
REMARK  290  A    between atoms: _719  and  _721
REMARK  291  A    between atoms: _721  and  _722
REMARK  292  A    between atoms: _721  and  _724
REMARK  293  A    between atoms: _728  and  _729
REMARK                            x       y       z     vdW  Elec       q    Type
REMARK                         _______ _______ _______ _____ _____    ______ ____
ROOT
ATOM      1  O   HOH     1      80.630  51.336 157.177  0.00  0.00    +0.000 OA
ENDROOT
TORSDOF 0
REMARK  Name = ../refined-set-2016/3f6e/3f6e_pocket.pdb
REMARK  293 active torsions:
REMARK  status: ('A' for Active; 'I' for Inactive)
REMARK    1  A    between atoms: _1  and  _3
REMARK    2  A    between atoms: _3  and  _4
REMARK    3  A    between atoms: _3  and  _6
REMARK    4  A    between atoms: _6  and  _7
REMARK    5  A    between atoms: _13  and  _14
REMARK    6  A    between atoms: _19  and  _21
REMARK    7  A    between atoms: _21  and  _22
REMARK    8  A    between atoms: _24  and  _26
REMARK    9  A    between atoms: _26  and  _27
REMARK   10  A    between atoms: _26  and  _29
REMARK   11  A    between atoms: _29  and  _30
REMARK   12  A    between atoms: _32  and  _34
REMARK   13  A    between atoms: _34  and  _35
REMARK   14  A    between atoms: _34  and  _37
REMARK   15  A    between atoms: _37  and  _38
REMARK   16  A    between atoms: _43  and  _45
REMARK   17  A    between atoms: _45  and  _46
REMARK   18  A    between atoms: _45  and  _48
REMARK   19  A    between atoms: _48  and  _49
REMARK   20  A    between atoms: _49  and  _50
REMARK   21  A    between atoms: _53  and  _55
REMARK   22  A    between atoms: _55  and  _56
REMARK   23  A    between atoms: _55  and  _58
REMARK   24  A    between atoms: _58  and  _59
REMARK   25  A    between atoms: _62  and  _64
REMARK   26  A    between atoms: _64  and  _65
REMARK   27  A    between atoms: _64  and  _67
REMARK   28  A    between atoms: _67  and  _68
REMARK   29  A    between atoms: _71  and  _73
REMARK   30  A    between atoms: _73  and  _74
REMARK   31  A    between atoms: _77  and  _79
REMARK   32  A    between atoms: _79  and  _80
REMARK   33  A    between atoms: _79  and  _82
REMARK   34  A    between atoms: _82  and  _83
REMARK   35  A    between atoms: _86  and  _88
REMARK   36  A    between atoms: _88  and  _89
REMARK   37  A    between atoms: _88  and  _91
REMARK   38  A    between atoms: _91  and  _92
REMARK   39  A    between atoms: _92  and  _93
REMARK   40  A    between atoms: _98  and  _100
REMARK   41  A    between atoms: _100  and  _101
REMARK   42  A    between atoms: _100  and  _103
REMARK   43  A    between atoms: _103  and  _104
REMARK   44  A    between atoms: _104  and  _105
REMARK   45  A    between atoms: _108  and  _110
REMARK   46  A    between atoms: _110  and  _111
REMARK   47  A    between atoms: _114  and  _116
REMARK   48  A    between atoms: _116  and  _117
REMARK   49  A    between atoms: _116  and  _119
REMARK   50  A    between atoms: _119  and  _120
REMARK   51  A    between atoms: _123  and  _125
REMARK   52  A    between atoms: _125  and  _126
REMARK   53  A    between atoms: _125  and  _128
REMARK   54  A    between atoms: _128  and  _129
REMARK   55  A    between atoms: _134  and  _136
REMARK   56  A    between atoms: _136  and  _137
REMARK   57  A    between atoms: _136  and  _139
REMARK   58  A    between atoms: _139  and  _140
REMARK   59  A    between atoms: _142  and  _144
REMARK   60  A    between atoms: _144  and  _145
REMARK   61  A    between atoms: _148  and  _150
REMARK   62  A    between atoms: _150  and  _151
REMARK   63  A    between atoms: _154  and  _156
REMARK   64  A    between atoms: _156  and  _157
REMARK   65  A    between atoms: _159  and  _161
REMARK   66  A    between atoms: _161  and  _162
REMARK   67  A    between atoms: _161  and  _164
REMARK   68  A    between atoms: _164  and  _165
REMARK   69  A    between atoms: _168  and  _170
REMARK   70  A    between atoms: _170  and  _171
REMARK   71  A    between atoms: _173  and  _175
REMARK   72  A    between atoms: _175  and  _176
REMARK   73  A    between atoms: _175  and  _178
REMARK   74  A    between atoms: _178  and  _179
REMARK   75  A    between atoms: _184  and  _186
REMARK   76  A    between atoms: _186  and  _187
REMARK   77  A    between atoms: _190  and  _192
REMARK   78  A    between atoms: _192  and  _193
REMARK   79  A    between atoms: _192  and  _195
REMARK   80  A    between atoms: _195  and  _196
REMARK   81  A    between atoms: _196  and  _197
REMARK   82  A    between atoms: _202  and  _204
REMARK   83  A    between atoms: _204  and  _205
REMARK   84  A    between atoms: _204  and  _207
REMARK   85  A    between atoms: _207  and  _208
REMARK   86  A    between atoms: _211  and  _213
REMARK   87  A    between atoms: _213  and  _214
REMARK   88  A    between atoms: _213  and  _216
REMARK   89  A    between atoms: _216  and  _217
REMARK   90  A    between atoms: _220  and  _222
REMARK   91  A    between atoms: _222  and  _223
REMARK   92  A    between atoms: _225  and  _227
REMARK   93  A    between atoms: _227  and  _228
REMARK   94  A    between atoms: _231  and  _233
REMARK   95  A    between atoms: _233  and  _234
REMARK   96  A    between atoms: _233  and  _236
REMARK   97  A    between atoms: _236  and  _237
REMARK   98  A    between atoms: _239  and  _241
REMARK   99  A    between atoms: _241  and  _242
REMARK  100  A    between atoms: _241  and  _244
REMARK  101  A    between atoms: _244  and  _245
REMARK  102  A    between atoms: _250  and  _252
REMARK  103  A    between atoms: _252  and  _253
REMARK  104  A    between atoms: _252  and  _255
REMARK  105  A    between atoms: _255  and  _256
REMARK  106  A    between atoms: _258  and  _260
REMARK  107  A    between atoms: _260  and  _261
REMARK  108  A    between atoms: _264  and  _266
REMARK  109  A    between atoms: _266  and  _267
REMARK  110  A    between atoms: _270  and  _272
REMARK  111  A    between atoms: _272  and  _273
REMARK  112  A    between atoms: _272  and  _275
REMARK  113  A    between atoms: _275  and  _276
REMARK  114  A    between atoms: _276  and  _277
REMARK  115  A    between atoms: _277  and  _278
REMARK  116  A    between atoms: _287  and  _289
REMARK  117  A    between atoms: _289  and  _290
REMARK  118  A    between atoms: _289  and  _292
REMARK  119  A    between atoms: _292  and  _293
REMARK  120  A    between atoms: _298  and  _299
REMARK  121  A    between atoms: _301  and  _303
REMARK  122  A    between atoms: _303  and  _304
REMARK  123  A    between atoms: _303  and  _306
REMARK  124  A    between atoms: _306  and  _307
REMARK  125  A    between atoms: _312  and  _314
REMARK  126  A    between atoms: _314  and  _315
REMARK  127  A    between atoms: _314  and  _317
REMARK  128  A    between atoms: _317  and  _318
REMARK  129  A    between atoms: _318  and  _319
REMARK  130  A    between atoms: _325  and  _326
REMARK  131  A    between atoms: _331  and  _333
REMARK  132  A    between atoms: _333  and  _334
REMARK  133  A    between atoms: _333  and  _336
REMARK  134  A    between atoms: _336  and  _337
REMARK  135  A    between atoms: _342  and  _344
REMARK  136  A    between atoms: _344  and  _345
REMARK  137  A    between atoms: _344  and  _347
REMARK  138  A    between atoms: _347  and  _348
REMARK  139  A    between atoms: _348  and  _349
REMARK  140  A    between atoms: _352  and  _354
REMARK  141  A    between atoms: _354  and  _355
REMARK  142  A    between atoms: _354  and  _357
REMARK  143  A    between atoms: _357  and  _358
REMARK  144  A    between atoms: _360  and  _362
REMARK  145  A    between atoms: _362  and  _363
REMARK  146  A    between atoms: _362  and  _365
REMARK  147  A    between atoms: _365  and  _366
REMARK  148  A    between atoms: _369  and  _371
REMARK  149  A    between atoms: _371  and  _372
REMARK  150  A    between atoms: _371  and  _374
REMARK  151  A    between atoms: _374  and  _375
REMARK  152  A    between atoms: _377  and  _379
REMARK  153  A    between atoms: _379  and  _380
REMARK  154  A    between atoms: _379  and  _382
REMARK  155  A    between atoms: _382  and  _383
REMARK  156  A    between atoms: _386  and  _388
REMARK  157  A    between atoms: _388  and  _389
REMARK  158  A    between atoms: _388  and  _391
REMARK  159  A    between atoms: _391  and  _392
REMARK  160  A    between atoms: _395  and  _397
REMARK  161  A    between atoms: _397  and  _398
REMARK  162  A    between atoms: _397  and  _400
REMARK  163  A    between atoms: _400  and  _401
REMARK  164  A    between atoms: _401  and  _402
REMARK  165  A    between atoms: _407  and  _409
REMARK  166  A    between atoms: _409  and  _410
REMARK  167  A    between atoms: _409  and  _412
REMARK  168  A    between atoms: _412  and  _413
REMARK  169  A    between atoms: _419  and  _421
REMARK  170  A    between atoms: _421  and  _422
REMARK  171  A    between atoms: _421  and  _424
REMARK  172  A    between atoms: _426  and  _428
REMARK  173  A    between atoms: _428  and  _429
REMARK  174  A    between atoms: _432  and  _434
REMARK  175  A    between atoms: _434  and  _435
REMARK  176  A    between atoms: _437  and  _439
REMARK  177  A    between atoms: _439  and  _440
REMARK  178  A    between atoms: _442  and  _444
REMARK  179  A    between atoms: _444  and  _445
REMARK  180  A    between atoms: _444  and  _447
REMARK  181  A    between atoms: _447  and  _448
REMARK  182  A    between atoms: _451  and  _453
REMARK  183  A    between atoms: _453  and  _454
REMARK  184  A    between atoms: _456  and  _458
REMARK  185  A    between atoms: _458  and  _459
REMARK  186  A    between atoms: _458  and  _461
REMARK  187  A    between atoms: _461  and  _462
REMARK  188  A    between atoms: _468  and  _470
REMARK  189  A    between atoms: _470  and  _471
REMARK  190  A    between atoms: _470  and  _473
REMARK  191  A    between atoms: _476  and  _478
REMARK  192  A    between atoms: _478  and  _479
REMARK  193  A    between atoms: _478  and  _481
REMARK  194  A    between atoms: _481  and  _482
REMARK  195  A    between atoms: _485  and  _487
REMARK  196  A    between atoms: _487  and  _488
REMARK  197  A    between atoms: _490  and  _492
REMARK  198  A    between atoms: _492  and  _493
REMARK  199  A    between atoms: _492  and  _495
REMARK  200  A    between atoms: _495  and  _496
REMARK  201  A    between atoms: _496  and  _497
REMARK  202  A    between atoms: _497  and  MG_734
REMARK  203  A    between atoms: _499  and  _501
REMARK  204  A    between atoms: _501  and  _502
REMARK  205  A    between atoms: _504  and  _506
REMARK  206  A    between atoms: _506  and  _507
REMARK  207  A    between atoms: _506  and  _509
REMARK  208  A    between atoms: _509  and  _510
REMARK  209  A    between atoms: _512  and  _514
REMARK  210  A    between atoms: _514  and  _515
REMARK  211  A    between atoms: _518  and  _520
REMARK  212  A    between atoms: _520  and  _521
REMARK  213  A    between atoms: _520  and  _523
REMARK  214  A    between atoms: _523  and  _524
REMARK  215  A    between atoms: _529  and  _531
REMARK  216  A    between atoms: _531  and  _532
REMARK  217  A    between atoms: _531  and  _534
REMARK  218  A    between atoms: _534  and  _535
REMARK  219  A    between atoms: _540  and  _541
REMARK  220  A    between atoms: _543  and  _545
REMARK  221  A    between atoms: _545  and  _546
REMARK  222  A    between atoms: _545  and  _548
REMARK  223  A    between atoms: _548  and  _549
REMARK  224  A    between atoms: _552  and  _554
REMARK  225  A    between atoms: _554  and  _555
REMARK  226  A    between atoms: _554  and  _557
REMARK  227  A    between atoms: _557  and  _558
REMARK  228  A    between atoms: _558  and  _559
REMARK  229  A    between atoms: _561  and  _563
REMARK  230  A    between atoms: _563  and  _564
REMARK  231  A    between atoms: _563  and  _566
REMARK  232  A    between atoms: _566  and  _567
REMARK  233  A    between atoms: _572  and  _574
REMARK  234  A    between atoms: _574  and  _575
REMARK  235  A    between atoms: _574  and  _577
REMARK  236  A    between atoms: _577  and  _578
REMARK  237  A    between atoms: _583  and  _585
REMARK  238  A    between atoms: _585  and  _586
REMARK  239  A    between atoms: _588  and  _590
REMARK  240  A    between atoms: _590  and  _591
REMARK  241  A    between atoms: _590  and  _593
REMARK  242  A    between atoms: _591  and  _592
REMARK  243  A    between atoms: _591  and  _597
REMARK  244  A    between atoms: _592  and  MG_734
REMARK  245  A    between atoms: _593  and  _594
REMARK  246  A    between atoms: _597  and  _599
REMARK  247  A    between atoms: _599  and  _600
REMARK  248  A    between atoms: _599  and  _602
REMARK  249  A    between atoms: _602  and  _603
REMARK  250  A    between atoms: _608  and  _609
REMARK  251  A    between atoms: _611  and  _613
REMARK  252  A    between atoms: _613  and  _614
REMARK  253  A    between atoms: _616  and  _618
REMARK  254  A    between atoms: _618  and  _619
REMARK  255  A    between atoms: _622  and  _624
REMARK  256  A    between atoms: _624  and  _625
REMARK  257  A    between atoms: _624  and  _627
REMARK  258  A    between atoms: _627  and  _628
REMARK  259  A    between atoms: _631  and  _633
REMARK  260  A    between atoms: _633  and  _634
REMARK  261  A    between atoms: _633  and  _636
REMARK  262  A    between atoms: _636  and  _637
REMARK  263  A    between atoms: _637  and  _638
REMARK  264  A    between atoms: _638  and  _639
REMARK  265  A    between atoms: _648  and  _650
REMARK  266  A    between atoms: _650  and  _651
REMARK  267  A    between atoms: _650  and  _653
REMARK  268  A    between atoms: _653  and  _654
REMARK  269  A    between atoms: _664  and  _666
REMARK  270  A    between atoms: _666  and  _667
REMARK  271  A    between atoms: _666  and  _669
REMARK  272  A    between atoms: _669  and  _670
REMARK  273  A    between atoms: _676  and  _678
REMARK  274  A    between atoms: _678  and  _679
REMARK  275  A    between atoms: _681  and  _683
REMARK  276  A    between atoms: _683  and  _684
REMARK  277  A    between atoms: _683  and  _686
REMARK  278  A    between atoms: _686  and  _687
REMARK  279  A    between atoms: _690  and  _692
REMARK  280  A    between atoms: _692  and  _693
REMARK  281  A    between atoms: _692  and  _695
REMARK  282  A    between atoms: _698  and  _700
REMARK  283  A    between atoms: _700  and  _701
REMARK  284  A    between atoms: _700  and  _703
REMARK  285  A    between atoms: _703  and  _704
REMARK  286  A    between atoms: _710  and  _712
REMARK  287  A    between atoms: _712  and  _713
REMARK  288  A    between atoms: _712  and  _715
REMARK  289  A    between atoms: _715  and  _716
REMARK  290  A    between atoms: _719  and  _721
REMARK  291  A    between atoms: _721  and  _722
REMARK  292  A    between atoms: _721  and  _724
REMARK  293  A    between atoms: _728  and  _729
REMARK                            x       y       z     vdW  Elec       q    Type
REMARK                         _______ _______ _______ _____ _____    ______ ____
ROOT
ATOM      1  O   HOH     1      66.710  63.965 167.243  0.00  0.00    +0.000 OA
ENDROOT
TORSDOF 0
REMARK  Name = ../refined-set-2016/3f6e/3f6e_pocket.pdb
REMARK  293 active torsions:
REMARK  status: ('A' for Active; 'I' for Inactive)
REMARK    1  A    between atoms: _1  and  _3
REMARK    2  A    between atoms: _3  and  _4
REMARK    3  A    between atoms: _3  and  _6
REMARK    4  A    between atoms: _6  and  _7
REMARK    5  A    between atoms: _13  and  _14
REMARK    6  A    between atoms: _19  and  _21
REMARK    7  A    between atoms: _21  and  _22
REMARK    8  A    between atoms: _24  and  _26
REMARK    9  A    between atoms: _26  and  _27
REMARK   10  A    between atoms: _26  and  _29
REMARK   11  A    between atoms: _29  and  _30
REMARK   12  A    between atoms: _32  and  _34
REMARK   13  A    between atoms: _34  and  _35
REMARK   14  A    between atoms: _34  and  _37
REMARK   15  A    between atoms: _37  and  _38
REMARK   16  A    between atoms: _43  and  _45
REMARK   17  A    between atoms: _45  and  _46
REMARK   18  A    between atoms: _45  and  _48
REMARK   19  A    between atoms: _48  and  _49
REMARK   20  A    between atoms: _49  and  _50
REMARK   21  A    between atoms: _53  and  _55
REMARK   22  A    between atoms: _55  and  _56
REMARK   23  A    between atoms: _55  and  _58
REMARK   24  A    between atoms: _58  and  _59
REMARK   25  A    between atoms: _62  and  _64
REMARK   26  A    between atoms: _64  and  _65
REMARK   27  A    between atoms: _64  and  _67
REMARK   28  A    between atoms: _67  and  _68
REMARK   29  A    between atoms: _71  and  _73
REMARK   30  A    between atoms: _73  and  _74
REMARK   31  A    between atoms: _77  and  _79
REMARK   32  A    between atoms: _79  and  _80
REMARK   33  A    between atoms: _79  and  _82
REMARK   34  A    between atoms: _82  and  _83
REMARK   35  A    between atoms: _86  and  _88
REMARK   36  A    between atoms: _88  and  _89
REMARK   37  A    between atoms: _88  and  _91
REMARK   38  A    between atoms: _91  and  _92
REMARK   39  A    between atoms: _92  and  _93
REMARK   40  A    between atoms: _98  and  _100
REMARK   41  A    between atoms: _100  and  _101
REMARK   42  A    between atoms: _100  and  _103
REMARK   43  A    between atoms: _103  and  _104
REMARK   44  A    between atoms: _104  and  _105
REMARK   45  A    between atoms: _108  and  _110
REMARK   46  A    between atoms: _110  and  _111
REMARK   47  A    between atoms: _114  and  _116
REMARK   48  A    between atoms: _116  and  _117
REMARK   49  A    between atoms: _116  and  _119
REMARK   50  A    between atoms: _119  and  _120
REMARK   51  A    between atoms: _123  and  _125
REMARK   52  A    between atoms: _125  and  _126
REMARK   53  A    between atoms: _125  and  _128
REMARK   54  A    between atoms: _128  and  _129
REMARK   55  A    between atoms: _134  and  _136
REMARK   56  A    between atoms: _136  and  _137
REMARK   57  A    between atoms: _136  and  _139
REMARK   58  A    between atoms: _139  and  _140
REMARK   59  A    between atoms: _142  and  _144
REMARK   60  A    between atoms: _144  and  _145
REMARK   61  A    between atoms: _148  and  _150
REMARK   62  A    between atoms: _150  and  _151
REMARK   63  A    between atoms: _154  and  _156
REMARK   64  A    between atoms: _156  and  _157
REMARK   65  A    between atoms: _159  and  _161
REMARK   66  A    between atoms: _161  and  _162
REMARK   67  A    between atoms: _161  and  _164
REMARK   68  A    between atoms: _164  and  _165
REMARK   69  A    between atoms: _168  and  _170
REMARK   70  A    between atoms: _170  and  _171
REMARK   71  A    between atoms: _173  and  _175
REMARK   72  A    between atoms: _175  and  _176
REMARK   73  A    between atoms: _175  and  _178
REMARK   74  A    between atoms: _178  and  _179
REMARK   75  A    between atoms: _184  and  _186
REMARK   76  A    between atoms: _186  and  _187
REMARK   77  A    between atoms: _190  and  _192
REMARK   78  A    between atoms: _192  and  _193
REMARK   79  A    between atoms: _192  and  _195
REMARK   80  A    between atoms: _195  and  _196
REMARK   81  A    between atoms: _196  and  _197
REMARK   82  A    between atoms: _202  and  _204
REMARK   83  A    between atoms: _204  and  _205
REMARK   84  A    between atoms: _204  and  _207
REMARK   85  A    between atoms: _207  and  _208
REMARK   86  A    between atoms: _211  and  _213
REMARK   87  A    between atoms: _213  and  _214
REMARK   88  A    between atoms: _213  and  _216
REMARK   89  A    between atoms: _216  and  _217
REMARK   90  A    between atoms: _220  and  _222
REMARK   91  A    between atoms: _222  and  _223
REMARK   92  A    between atoms: _225  and  _227
REMARK   93  A    between atoms: _227  and  _228
REMARK   94  A    between atoms: _231  and  _233
REMARK   95  A    between atoms: _233  and  _234
REMARK   96  A    between atoms: _233  and  _236
REMARK   97  A    between atoms: _236  and  _237
REMARK   98  A    between atoms: _239  and  _241
REMARK   99  A    between atoms: _241  and  _242
REMARK  100  A    between atoms: _241  and  _244
REMARK  101  A    between atoms: _244  and  _245
REMARK  102  A    between atoms: _250  and  _252
REMARK  103  A    between atoms: _252  and  _253
REMARK  104  A    between atoms: _252  and  _255
REMARK  105  A    between atoms: _255  and  _256
REMARK  106  A    between atoms: _258  and  _260
REMARK  107  A    between atoms: _260  and  _261
REMARK  108  A    between atoms: _264  and  _266
REMARK  109  A    between atoms: _266  and  _267
REMARK  110  A    between atoms: _270  and  _272
REMARK  111  A    between atoms: _272  and  _273
REMARK  112  A    between atoms: _272  and  _275
REMARK  113  A    between atoms: _275  and  _276
REMARK  114  A    between atoms: _276  and  _277
REMARK  115  A    between atoms: _277  and  _278
REMARK  116  A    between atoms: _287  and  _289
REMARK  117  A    between atoms: _289  and  _290
REMARK  118  A    between atoms: _289  and  _292
REMARK  119  A    between atoms: _292  and  _293
REMARK  120  A    between atoms: _298  and  _299
REMARK  121  A    between atoms: _301  and  _303
REMARK  122  A    between atoms: _303  and  _304
REMARK  123  A    between atoms: _303  and  _306
REMARK  124  A    between atoms: _306  and  _307
REMARK  125  A    between atoms: _312  and  _314
REMARK  126  A    between atoms: _314  and  _315
REMARK  127  A    between atoms: _314  and  _317
REMARK  128  A    between atoms: _317  and  _318
REMARK  129  A    between atoms: _318  and  _319
REMARK  130  A    between atoms: _325  and  _326
REMARK  131  A    between atoms: _331  and  _333
REMARK  132  A    between atoms: _333  and  _334
REMARK  133  A    between atoms: _333  and  _336
REMARK  134  A    between atoms: _336  and  _337
REMARK  135  A    between atoms: _342  and  _344
REMARK  136  A    between atoms: _344  and  _345
REMARK  137  A    between atoms: _344  and  _347
REMARK  138  A    between atoms: _347  and  _348
REMARK  139  A    between atoms: _348  and  _349
REMARK  140  A    between atoms: _352  and  _354
REMARK  141  A    between atoms: _354  and  _355
REMARK  142  A    between atoms: _354  and  _357
REMARK  143  A    between atoms: _357  and  _358
REMARK  144  A    between atoms: _360  and  _362
REMARK  145  A    between atoms: _362  and  _363
REMARK  146  A    between atoms: _362  and  _365
REMARK  147  A    between atoms: _365  and  _366
REMARK  148  A    between atoms: _369  and  _371
REMARK  149  A    between atoms: _371  and  _372
REMARK  150  A    between atoms: _371  and  _374
REMARK  151  A    between atoms: _374  and  _375
REMARK  152  A    between atoms: _377  and  _379
REMARK  153  A    between atoms: _379  and  _380
REMARK  154  A    between atoms: _379  and  _382
REMARK  155  A    between atoms: _382  and  _383
REMARK  156  A    between atoms: _386  and  _388
REMARK  157  A    between atoms: _388  and  _389
REMARK  158  A    between atoms: _388  and  _391
REMARK  159  A    between atoms: _391  and  _392
REMARK  160  A    between atoms: _395  and  _397
REMARK  161  A    between atoms: _397  and  _398
REMARK  162  A    between atoms: _397  and  _400
REMARK  163  A    between atoms: _400  and  _401
REMARK  164  A    between atoms: _401  and  _402
REMARK  165  A    between atoms: _407  and  _409
REMARK  166  A    between atoms: _409  and  _410
REMARK  167  A    between atoms: _409  and  _412
REMARK  168  A    between atoms: _412  and  _413
REMARK  169  A    between atoms: _419  and  _421
REMARK  170  A    between atoms: _421  and  _422
REMARK  171  A    between atoms: _421  and  _424
REMARK  172  A    between atoms: _426  and  _428
REMARK  173  A    between atoms: _428  and  _429
REMARK  174  A    between atoms: _432  and  _434
REMARK  175  A    between atoms: _434  and  _435
REMARK  176  A    between atoms: _437  and  _439
REMARK  177  A    between atoms: _439  and  _440
REMARK  178  A    between atoms: _442  and  _444
REMARK  179  A    between atoms: _444  and  _445
REMARK  180  A    between atoms: _444  and  _447
REMARK  181  A    between atoms: _447  and  _448
REMARK  182  A    between atoms: _451  and  _453
REMARK  183  A    between atoms: _453  and  _454
REMARK  184  A    between atoms: _456  and  _458
REMARK  185  A    between atoms: _458  and  _459
REMARK  186  A    between atoms: _458  and  _461
REMARK  187  A    between atoms: _461  and  _462
REMARK  188  A    between atoms: _468  and  _470
REMARK  189  A    between atoms: _470  and  _471
REMARK  190  A    between atoms: _470  and  _473
REMARK  191  A    between atoms: _476  and  _478
REMARK  192  A    between atoms: _478  and  _479
REMARK  193  A    between atoms: _478  and  _481
REMARK  194  A    between atoms: _481  and  _482
REMARK  195  A    between atoms: _485  and  _487
REMARK  196  A    between atoms: _487  and  _488
REMARK  197  A    between atoms: _490  and  _492
REMARK  198  A    between atoms: _492  and  _493
REMARK  199  A    between atoms: _492  and  _495
REMARK  200  A    between atoms: _495  and  _496
REMARK  201  A    between atoms: _496  and  _497
REMARK  202  A    between atoms: _497  and  MG_734
REMARK  203  A    between atoms: _499  and  _501
REMARK  204  A    between atoms: _501  and  _502
REMARK  205  A    between atoms: _504  and  _506
REMARK  206  A    between atoms: _506  and  _507
REMARK  207  A    between atoms: _506  and  _509
REMARK  208  A    between atoms: _509  and  _510
REMARK  209  A    between atoms: _512  and  _514
REMARK  210  A    between atoms: _514  and  _515
REMARK  211  A    between atoms: _518  and  _520
REMARK  212  A    between atoms: _520  and  _521
REMARK  213  A    between atoms: _520  and  _523
REMARK  214  A    between atoms: _523  and  _524
REMARK  215  A    between atoms: _529  and  _531
REMARK  216  A    between atoms: _531  and  _532
REMARK  217  A    between atoms: _531  and  _534
REMARK  218  A    between atoms: _534  and  _535
REMARK  219  A    between atoms: _540  and  _541
REMARK  220  A    between atoms: _543  and  _545
REMARK  221  A    between atoms: _545  and  _546
REMARK  222  A    between atoms: _545  and  _548
REMARK  223  A    between atoms: _548  and  _549
REMARK  224  A    between atoms: _552  and  _554
REMARK  225  A    between atoms: _554  and  _555
REMARK  226  A    between atoms: _554  and  _557
REMARK  227  A    between atoms: _557  and  _558
REMARK  228  A    between atoms: _558  and  _559
REMARK  229  A    between atoms: _561  and  _563
REMARK  230  A    between atoms: _563  and  _564
REMARK  231  A    between atoms: _563  and  _566
REMARK  232  A    between atoms: _566  and  _567
REMARK  233  A    between atoms: _572  and  _574
REMARK  234  A    between atoms: _574  and  _575
REMARK  235  A    between atoms: _574  and  _577
REMARK  236  A    between atoms: _577  and  _578
REMARK  237  A    between atoms: _583  and  _585
REMARK  238  A    between atoms: _585  and  _586
REMARK  239  A    between atoms: _588  and  _590
REMARK  240  A    between atoms: _590  and  _591
REMARK  241  A    between atoms: _590  and  _593
REMARK  242  A    between atoms: _591  and  _592
REMARK  243  A    between atoms: _591  and  _597
REMARK  244  A    between atoms: _592  and  MG_734
REMARK  245  A    between atoms: _593  and  _594
REMARK  246  A    between atoms: _597  and  _599
REMARK  247  A    between atoms: _599  and  _600
REMARK  248  A    between atoms: _599  and  _602
REMARK  249  A    between atoms: _602  and  _603
REMARK  250  A    between atoms: _608  and  _609
REMARK  251  A    between atoms: _611  and  _613
REMARK  252  A    between atoms: _613  and  _614
REMARK  253  A    between atoms: _616  and  _618
REMARK  254  A    between atoms: _618  and  _619
REMARK  255  A    between atoms: _622  and  _624
REMARK  256  A    between atoms: _624  and  _625
REMARK  257  A    between atoms: _624  and  _627
REMARK  258  A    between atoms: _627  and  _628
REMARK  259  A    between atoms: _631  and  _633
REMARK  260  A    between atoms: _633  and  _634
REMARK  261  A    between atoms: _633  and  _636
REMARK  262  A    between atoms: _636  and  _637
REMARK  263  A    between atoms: _637  and  _638
REMARK  264  A    between atoms: _638  and  _639
REMARK  265  A    between atoms: _648  and  _650
REMARK  266  A    between atoms: _650  and  _651
REMARK  267  A    between atoms: _650  and  _653
REMARK  268  A    between atoms: _653  and  _654
REMARK  269  A    between atoms: _664  and  _666
REMARK  270  A    between atoms: _666  and  _667
REMARK  271  A    between atoms: _666  and  _669
REMARK  272  A    between atoms: _669  and  _670
REMARK  273  A    between atoms: _676  and  _678
REMARK  274  A    between atoms: _678  and  _679
REMARK  275  A    between atoms: _681  and  _683
REMARK  276  A    between atoms: _683  and  _684
REMARK  277  A    between atoms: _683  and  _686
REMARK  278  A    between atoms: _686  and  _687
REMARK  279  A    between atoms: _690  and  _692
REMARK  280  A    between atoms: _692  and  _693
REMARK  281  A    between atoms: _692  and  _695
REMARK  282  A    between atoms: _698  and  _700
REMARK  283  A    between atoms: _700  and  _701
REMARK  284  A    between atoms: _700  and  _703
REMARK  285  A    between atoms: _703  and  _704
REMARK  286  A    between atoms: _710  and  _712
REMARK  287  A    between atoms: _712  and  _713
REMARK  288  A    between atoms: _712  and  _715
REMARK  289  A    between atoms: _715  and  _716
REMARK  290  A    between atoms: _719  and  _721
REMARK  291  A    between atoms: _721  and  _722
REMARK  292  A    between atoms: _721  and  _724
REMARK  293  A    between atoms: _728  and  _729
REMARK                            x       y       z     vdW  Elec       q    Type
REMARK                         _______ _______ _______ _____ _____    ______ ____
ROOT
ATOM      1  O   HOH     1      62.775  66.344 156.439  0.00  0.00    +0.000 OA
ENDROOT
TORSDOF 0
REMARK  Name = ../refined-set-2016/3f6e/3f6e_pocket.pdb
REMARK  293 active torsions:
REMARK  status: ('A' for Active; 'I' for Inactive)
REMARK    1  A    between atoms: _1  and  _3
REMARK    2  A    between atoms: _3  and  _4
REMARK    3  A    between atoms: _3  and  _6
REMARK    4  A    between atoms: _6  and  _7
REMARK    5  A    between atoms: _13  and  _14
REMARK    6  A    between atoms: _19  and  _21
REMARK    7  A    between atoms: _21  and  _22
REMARK    8  A    between atoms: _24  and  _26
REMARK    9  A    between atoms: _26  and  _27
REMARK   10  A    between atoms: _26  and  _29
REMARK   11  A    between atoms: _29  and  _30
REMARK   12  A    between atoms: _32  and  _34
REMARK   13  A    between atoms: _34  and  _35
REMARK   14  A    between atoms: _34  and  _37
REMARK   15  A    between atoms: _37  and  _38
REMARK   16  A    between atoms: _43  and  _45
REMARK   17  A    between atoms: _45  and  _46
REMARK   18  A    between atoms: _45  and  _48
REMARK   19  A    between atoms: _48  and  _49
REMARK   20  A    between atoms: _49  and  _50
REMARK   21  A    between atoms: _53  and  _55
REMARK   22  A    between atoms: _55  and  _56
REMARK   23  A    between atoms: _55  and  _58
REMARK   24  A    between atoms: _58  and  _59
REMARK   25  A    between atoms: _62  and  _64
REMARK   26  A    between atoms: _64  and  _65
REMARK   27  A    between atoms: _64  and  _67
REMARK   28  A    between atoms: _67  and  _68
REMARK   29  A    between atoms: _71  and  _73
REMARK   30  A    between atoms: _73  and  _74
REMARK   31  A    between atoms: _77  and  _79
REMARK   32  A    between atoms: _79  and  _80
REMARK   33  A    between atoms: _79  and  _82
REMARK   34  A    between atoms: _82  and  _83
REMARK   35  A    between atoms: _86  and  _88
REMARK   36  A    between atoms: _88  and  _89
REMARK   37  A    between atoms: _88  and  _91
REMARK   38  A    between atoms: _91  and  _92
REMARK   39  A    between atoms: _92  and  _93
REMARK   40  A    between atoms: _98  and  _100
REMARK   41  A    between atoms: _100  and  _101
REMARK   42  A    between atoms: _100  and  _103
REMARK   43  A    between atoms: _103  and  _104
REMARK   44  A    between atoms: _104  and  _105
REMARK   45  A    between atoms: _108  and  _110
REMARK   46  A    between atoms: _110  and  _111
REMARK   47  A    between atoms: _114  and  _116
REMARK   48  A    between atoms: _116  and  _117
REMARK   49  A    between atoms: _116  and  _119
REMARK   50  A    between atoms: _119  and  _120
REMARK   51  A    between atoms: _123  and  _125
REMARK   52  A    between atoms: _125  and  _126
REMARK   53  A    between atoms: _125  and  _128
REMARK   54  A    between atoms: _128  and  _129
REMARK   55  A    between atoms: _134  and  _136
REMARK   56  A    between atoms: _136  and  _137
REMARK   57  A    between atoms: _136  and  _139
REMARK   58  A    between atoms: _139  and  _140
REMARK   59  A    between atoms: _142  and  _144
REMARK   60  A    between atoms: _144  and  _145
REMARK   61  A    between atoms: _148  and  _150
REMARK   62  A    between atoms: _150  and  _151
REMARK   63  A    between atoms: _154  and  _156
REMARK   64  A    between atoms: _156  and  _157
REMARK   65  A    between atoms: _159  and  _161
REMARK   66  A    between atoms: _161  and  _162
REMARK   67  A    between atoms: _161  and  _164
REMARK   68  A    between atoms: _164  and  _165
REMARK   69  A    between atoms: _168  and  _170
REMARK   70  A    between atoms: _170  and  _171
REMARK   71  A    between atoms: _173  and  _175
REMARK   72  A    between atoms: _175  and  _176
REMARK   73  A    between atoms: _175  and  _178
REMARK   74  A    between atoms: _178  and  _179
REMARK   75  A    between atoms: _184  and  _186
REMARK   76  A    between atoms: _186  and  _187
REMARK   77  A    between atoms: _190  and  _192
REMARK   78  A    between atoms: _192  and  _193
REMARK   79  A    between atoms: _192  and  _195
REMARK   80  A    between atoms: _195  and  _196
REMARK   81  A    between atoms: _196  and  _197
REMARK   82  A    between atoms: _202  and  _204
REMARK   83  A    between atoms: _204  and  _205
REMARK   84  A    between atoms: _204  and  _207
REMARK   85  A    between atoms: _207  and  _208
REMARK   86  A    between atoms: _211  and  _213
REMARK   87  A    between atoms: _213  and  _214
REMARK   88  A    between atoms: _213  and  _216
REMARK   89  A    between atoms: _216  and  _217
REMARK   90  A    between atoms: _220  and  _222
REMARK   91  A    between atoms: _222  and  _223
REMARK   92  A    between atoms: _225  and  _227
REMARK   93  A    between atoms: _227  and  _228
REMARK   94  A    between atoms: _231  and  _233
REMARK   95  A    between atoms: _233  and  _234
REMARK   96  A    between atoms: _233  and  _236
REMARK   97  A    between atoms: _236  and  _237
REMARK   98  A    between atoms: _239  and  _241
REMARK   99  A    between atoms: _241  and  _242
REMARK  100  A    between atoms: _241  and  _244
REMARK  101  A    between atoms: _244  and  _245
REMARK  102  A    between atoms: _250  and  _252
REMARK  103  A    between atoms: _252  and  _253
REMARK  104  A    between atoms: _252  and  _255
REMARK  105  A    between atoms: _255  and  _256
REMARK  106  A    between atoms: _258  and  _260
REMARK  107  A    between atoms: _260  and  _261
REMARK  108  A    between atoms: _264  and  _266
REMARK  109  A    between atoms: _266  and  _267
REMARK  110  A    between atoms: _270  and  _272
REMARK  111  A    between atoms: _272  and  _273
REMARK  112  A    between atoms: _272  and  _275
REMARK  113  A    between atoms: _275  and  _276
REMARK  114  A    between atoms: _276  and  _277
REMARK  115  A    between atoms: _277  and  _278
REMARK  116  A    between atoms: _287  and  _289
REMARK  117  A    between atoms: _289  and  _290
REMARK  118  A    between atoms: _289  and  _292
REMARK  119  A    between atoms: _292  and  _293
REMARK  120  A    between atoms: _298  and  _299
REMARK  121  A    between atoms: _301  and  _303
REMARK  122  A    between atoms: _303  and  _304
REMARK  123  A    between atoms: _303  and  _306
REMARK  124  A    between atoms: _306  and  _307
REMARK  125  A    between atoms: _312  and  _314
REMARK  126  A    between atoms: _314  and  _315
REMARK  127  A    between atoms: _314  and  _317
REMARK  128  A    between atoms: _317  and  _318
REMARK  129  A    between atoms: _318  and  _319
REMARK  130  A    between atoms: _325  and  _326
REMARK  131  A    between atoms: _331  and  _333
REMARK  132  A    between atoms: _333  and  _334
REMARK  133  A    between atoms: _333  and  _336
REMARK  134  A    between atoms: _336  and  _337
REMARK  135  A    between atoms: _342  and  _344
REMARK  136  A    between atoms: _344  and  _345
REMARK  137  A    between atoms: _344  and  _347
REMARK  138  A    between atoms: _347  and  _348
REMARK  139  A    between atoms: _348  and  _349
REMARK  140  A    between atoms: _352  and  _354
REMARK  141  A    between atoms: _354  and  _355
REMARK  142  A    between atoms: _354  and  _357
REMARK  143  A    between atoms: _357  and  _358
REMARK  144  A    between atoms: _360  and  _362
REMARK  145  A    between atoms: _362  and  _363
REMARK  146  A    between atoms: _362  and  _365
REMARK  147  A    between atoms: _365  and  _366
REMARK  148  A    between atoms: _369  and  _371
REMARK  149  A    between atoms: _371  and  _372
REMARK  150  A    between atoms: _371  and  _374
REMARK  151  A    between atoms: _374  and  _375
REMARK  152  A    between atoms: _377  and  _379
REMARK  153  A    between atoms: _379  and  _380
REMARK  154  A    between atoms: _379  and  _382
REMARK  155  A    between atoms: _382  and  _383
REMARK  156  A    between atoms: _386  and  _388
REMARK  157  A    between atoms: _388  and  _389
REMARK  158  A    between atoms: _388  and  _391
REMARK  159  A    between atoms: _391  and  _392
REMARK  160  A    between atoms: _395  and  _397
REMARK  161  A    between atoms: _397  and  _398
REMARK  162  A    between atoms: _397  and  _400
REMARK  163  A    between atoms: _400  and  _401
REMARK  164  A    between atoms: _401  and  _402
REMARK  165  A    between atoms: _407  and  _409
REMARK  166  A    between atoms: _409  and  _410
REMARK  167  A    between atoms: _409  and  _412
REMARK  168  A    between atoms: _412  and  _413
REMARK  169  A    between atoms: _419  and  _421
REMARK  170  A    between atoms: _421  and  _422
REMARK  171  A    between atoms: _421  and  _424
REMARK  172  A    between atoms: _426  and  _428
REMARK  173  A    between atoms: _428  and  _429
REMARK  174  A    between atoms: _432  and  _434
REMARK  175  A    between atoms: _434  and  _435
REMARK  176  A    between atoms: _437  and  _439
REMARK  177  A    between atoms: _439  and  _440
REMARK  178  A    between atoms: _442  and  _444
REMARK  179  A    between atoms: _444  and  _445
REMARK  180  A    between atoms: _444  and  _447
REMARK  181  A    between atoms: _447  and  _448
REMARK  182  A    between atoms: _451  and  _453
REMARK  183  A    between atoms: _453  and  _454
REMARK  184  A    between atoms: _456  and  _458
REMARK  185  A    between atoms: _458  and  _459
REMARK  186  A    between atoms: _458  and  _461
REMARK  187  A    between atoms: _461  and  _462
REMARK  188  A    between atoms: _468  and  _470
REMARK  189  A    between atoms: _470  and  _471
REMARK  190  A    between atoms: _470  and  _473
REMARK  191  A    between atoms: _476  and  _478
REMARK  192  A    between atoms: _478  and  _479
REMARK  193  A    between atoms: _478  and  _481
REMARK  194  A    between atoms: _481  and  _482
REMARK  195  A    between atoms: _485  and  _487
REMARK  196  A    between atoms: _487  and  _488
REMARK  197  A    between atoms: _490  and  _492
REMARK  198  A    between atoms: _492  and  _493
REMARK  199  A    between atoms: _492  and  _495
REMARK  200  A    between atoms: _495  and  _496
REMARK  201  A    between atoms: _496  and  _497
REMARK  202  A    between atoms: _497  and  MG_734
REMARK  203  A    between atoms: _499  and  _501
REMARK  204  A    between atoms: _501  and  _502
REMARK  205  A    between atoms: _504  and  _506
REMARK  206  A    between atoms: _506  and  _507
REMARK  207  A    between atoms: _506  and  _509
REMARK  208  A    between atoms: _509  and  _510
REMARK  209  A    between atoms: _512  and  _514
REMARK  210  A    between atoms: _514  and  _515
REMARK  211  A    between atoms: _518  and  _520
REMARK  212  A    between atoms: _520  and  _521
REMARK  213  A    between atoms: _520  and  _523
REMARK  214  A    between atoms: _523  and  _524
REMARK  215  A    between atoms: _529  and  _531
REMARK  216  A    between atoms: _531  and  _532
REMARK  217  A    between atoms: _531  and  _534
REMARK  218  A    between atoms: _534  and  _535
REMARK  219  A    between atoms: _540  and  _541
REMARK  220  A    between atoms: _543  and  _545
REMARK  221  A    between atoms: _545  and  _546
REMARK  222  A    between atoms: _545  and  _548
REMARK  223  A    between atoms: _548  and  _549
REMARK  224  A    between atoms: _552  and  _554
REMARK  225  A    between atoms: _554  and  _555
REMARK  226  A    between atoms: _554  and  _557
REMARK  227  A    between atoms: _557  and  _558
REMARK  228  A    between atoms: _558  and  _559
REMARK  229  A    between atoms: _561  and  _563
REMARK  230  A    between atoms: _563  and  _564
REMARK  231  A    between atoms: _563  and  _566
REMARK  232  A    between atoms: _566  and  _567
REMARK  233  A    between atoms: _572  and  _574
REMARK  234  A    between atoms: _574  and  _575
REMARK  235  A    between atoms: _574  and  _577
REMARK  236  A    between atoms: _577  and  _578
REMARK  237  A    between atoms: _583  and  _585
REMARK  238  A    between atoms: _585  and  _586
REMARK  239  A    between atoms: _588  and  _590
REMARK  240  A    between atoms: _590  and  _591
REMARK  241  A    between atoms: _590  and  _593
REMARK  242  A    between atoms: _591  and  _592
REMARK  243  A    between atoms: _591  and  _597
REMARK  244  A    between atoms: _592  and  MG_734
REMARK  245  A    between atoms: _593  and  _594
REMARK  246  A    between atoms: _597  and  _599
REMARK  247  A    between atoms: _599  and  _600
REMARK  248  A    between atoms: _599  and  _602
REMARK  249  A    between atoms: _602  and  _603
REMARK  250  A    between atoms: _608  and  _609
REMARK  251  A    between atoms: _611  and  _613
REMARK  252  A    between atoms: _613  and  _614
REMARK  253  A    between atoms: _616  and  _618
REMARK  254  A    between atoms: _618  and  _619
REMARK  255  A    between atoms: _622  and  _624
REMARK  256  A    between atoms: _624  and  _625
REMARK  257  A    between atoms: _624  and  _627
REMARK  258  A    between atoms: _627  and  _628
REMARK  259  A    between atoms: _631  and  _633
REMARK  260  A    between atoms: _633  and  _634
REMARK  261  A    between atoms: _633  and  _636
REMARK  262  A    between atoms: _636  and  _637
REMARK  263  A    between atoms: _637  and  _638
REMARK  264  A    between atoms: _638  and  _639
REMARK  265  A    between atoms: _648  and  _650
REMARK  266  A    between atoms: _650  and  _651
REMARK  267  A    between atoms: _650  and  _653
REMARK  268  A    between atoms: _653  and  _654
REMARK  269  A    between atoms: _664  and  _666
REMARK  270  A    between atoms: _666  and  _667
REMARK  271  A    between atoms: _666  and  _669
REMARK  272  A    between atoms: _669  and  _670
REMARK  273  A    between atoms: _676  and  _678
REMARK  274  A    between atoms: _678  and  _679
REMARK  275  A    between atoms: _681  and  _683
REMARK  276  A    between atoms: _683  and  _684
REMARK  277  A    between atoms: _683  and  _686
REMARK  278  A    between atoms: _686  and  _687
REMARK  279  A    between atoms: _690  and  _692
REMARK  280  A    between atoms: _692  and  _693
REMARK  281  A    between atoms: _692  and  _695
REMARK  282  A    between atoms: _698  and  _700
REMARK  283  A    between atoms: _700  and  _701
REMARK  284  A    between atoms: _700  and  _703
REMARK  285  A    between atoms: _703  and  _704
REMARK  286  A    between atoms: _710  and  _712
REMARK  287  A    between atoms: _712  and  _713
REMARK  288  A    between atoms: _712  and  _715
REMARK  289  A    between atoms: _715  and  _716
REMARK  290  A    between atoms: _719  and  _721
REMARK  291  A    between atoms: _721  and  _722
REMARK  292  A    between atoms: _721  and  _724
REMARK  293  A    between atoms: _728  and  _729
REMARK                            x       y       z     vdW  Elec       q    Type
REMARK                         _______ _______ _______ _____ _____    ______ ____
ROOT
ATOM      1  O   HOH     1      67.816  66.780 159.964  0.00  0.00    +0.000 OA
ENDROOT
TORSDOF 0
REMARK  Name = ../refined-set-2016/3f6e/3f6e_pocket.pdb
REMARK  293 active torsions:
REMARK  status: ('A' for Active; 'I' for Inactive)
REMARK    1  A    between atoms: _1  and  _3
REMARK    2  A    between atoms: _3  and  _4
REMARK    3  A    between atoms: _3  and  _6
REMARK    4  A    between atoms: _6  and  _7
REMARK    5  A    between atoms: _13  and  _14
REMARK    6  A    between atoms: _19  and  _21
REMARK    7  A    between atoms: _21  and  _22
REMARK    8  A    between atoms: _24  and  _26
REMARK    9  A    between atoms: _26  and  _27
REMARK   10  A    between atoms: _26  and  _29
REMARK   11  A    between atoms: _29  and  _30
REMARK   12  A    between atoms: _32  and  _34
REMARK   13  A    between atoms: _34  and  _35
REMARK   14  A    between atoms: _34  and  _37
REMARK   15  A    between atoms: _37  and  _38
REMARK   16  A    between atoms: _43  and  _45
REMARK   17  A    between atoms: _45  and  _46
REMARK   18  A    between atoms: _45  and  _48
REMARK   19  A    between atoms: _48  and  _49
REMARK   20  A    between atoms: _49  and  _50
REMARK   21  A    between atoms: _53  and  _55
REMARK   22  A    between atoms: _55  and  _56
REMARK   23  A    between atoms: _55  and  _58
REMARK   24  A    between atoms: _58  and  _59
REMARK   25  A    between atoms: _62  and  _64
REMARK   26  A    between atoms: _64  and  _65
REMARK   27  A    between atoms: _64  and  _67
REMARK   28  A    between atoms: _67  and  _68
REMARK   29  A    between atoms: _71  and  _73
REMARK   30  A    between atoms: _73  and  _74
REMARK   31  A    between atoms: _77  and  _79
REMARK   32  A    between atoms: _79  and  _80
REMARK   33  A    between atoms: _79  and  _82
REMARK   34  A    between atoms: _82  and  _83
REMARK   35  A    between atoms: _86  and  _88
REMARK   36  A    between atoms: _88  and  _89
REMARK   37  A    between atoms: _88  and  _91
REMARK   38  A    between atoms: _91  and  _92
REMARK   39  A    between atoms: _92  and  _93
REMARK   40  A    between atoms: _98  and  _100
REMARK   41  A    between atoms: _100  and  _101
REMARK   42  A    between atoms: _100  and  _103
REMARK   43  A    between atoms: _103  and  _104
REMARK   44  A    between atoms: _104  and  _105
REMARK   45  A    between atoms: _108  and  _110
REMARK   46  A    between atoms: _110  and  _111
REMARK   47  A    between atoms: _114  and  _116
REMARK   48  A    between atoms: _116  and  _117
REMARK   49  A    between atoms: _116  and  _119
REMARK   50  A    between atoms: _119  and  _120
REMARK   51  A    between atoms: _123  and  _125
REMARK   52  A    between atoms: _125  and  _126
REMARK   53  A    between atoms: _125  and  _128
REMARK   54  A    between atoms: _128  and  _129
REMARK   55  A    between atoms: _134  and  _136
REMARK   56  A    between atoms: _136  and  _137
REMARK   57  A    between atoms: _136  and  _139
REMARK   58  A    between atoms: _139  and  _140
REMARK   59  A    between atoms: _142  and  _144
REMARK   60  A    between atoms: _144  and  _145
REMARK   61  A    between atoms: _148  and  _150
REMARK   62  A    between atoms: _150  and  _151
REMARK   63  A    between atoms: _154  and  _156
REMARK   64  A    between atoms: _156  and  _157
REMARK   65  A    between atoms: _159  and  _161
REMARK   66  A    between atoms: _161  and  _162
REMARK   67  A    between atoms: _161  and  _164
REMARK   68  A    between atoms: _164  and  _165
REMARK   69  A    between atoms: _168  and  _170
REMARK   70  A    between atoms: _170  and  _171
REMARK   71  A    between atoms: _173  and  _175
REMARK   72  A    between atoms: _175  and  _176
REMARK   73  A    between atoms: _175  and  _178
REMARK   74  A    between atoms: _178  and  _179
REMARK   75  A    between atoms: _184  and  _186
REMARK   76  A    between atoms: _186  and  _187
REMARK   77  A    between atoms: _190  and  _192
REMARK   78  A    between atoms: _192  and  _193
REMARK   79  A    between atoms: _192  and  _195
REMARK   80  A    between atoms: _195  and  _196
REMARK   81  A    between atoms: _196  and  _197
REMARK   82  A    between atoms: _202  and  _204
REMARK   83  A    between atoms: _204  and  _205
REMARK   84  A    between atoms: _204  and  _207
REMARK   85  A    between atoms: _207  and  _208
REMARK   86  A    between atoms: _211  and  _213
REMARK   87  A    between atoms: _213  and  _214
REMARK   88  A    between atoms: _213  and  _216
REMARK   89  A    between atoms: _216  and  _217
REMARK   90  A    between atoms: _220  and  _222
REMARK   91  A    between atoms: _222  and  _223
REMARK   92  A    between atoms: _225  and  _227
REMARK   93  A    between atoms: _227  and  _228
REMARK   94  A    between atoms: _231  and  _233
REMARK   95  A    between atoms: _233  and  _234
REMARK   96  A    between atoms: _233  and  _236
REMARK   97  A    between atoms: _236  and  _237
REMARK   98  A    between atoms: _239  and  _241
REMARK   99  A    between atoms: _241  and  _242
REMARK  100  A    between atoms: _241  and  _244
REMARK  101  A    between atoms: _244  and  _245
REMARK  102  A    between atoms: _250  and  _252
REMARK  103  A    between atoms: _252  and  _253
REMARK  104  A    between atoms: _252  and  _255
REMARK  105  A    between atoms: _255  and  _256
REMARK  106  A    between atoms: _258  and  _260
REMARK  107  A    between atoms: _260  and  _261
REMARK  108  A    between atoms: _264  and  _266
REMARK  109  A    between atoms: _266  and  _267
REMARK  110  A    between atoms: _270  and  _272
REMARK  111  A    between atoms: _272  and  _273
REMARK  112  A    between atoms: _272  and  _275
REMARK  113  A    between atoms: _275  and  _276
REMARK  114  A    between atoms: _276  and  _277
REMARK  115  A    between atoms: _277  and  _278
REMARK  116  A    between atoms: _287  and  _289
REMARK  117  A    between atoms: _289  and  _290
REMARK  118  A    between atoms: _289  and  _292
REMARK  119  A    between atoms: _292  and  _293
REMARK  120  A    between atoms: _298  and  _299
REMARK  121  A    between atoms: _301  and  _303
REMARK  122  A    between atoms: _303  and  _304
REMARK  123  A    between atoms: _303  and  _306
REMARK  124  A    between atoms: _306  and  _307
REMARK  125  A    between atoms: _312  and  _314
REMARK  126  A    between atoms: _314  and  _315
REMARK  127  A    between atoms: _314  and  _317
REMARK  128  A    between atoms: _317  and  _318
REMARK  129  A    between atoms: _318  and  _319
REMARK  130  A    between atoms: _325  and  _326
REMARK  131  A    between atoms: _331  and  _333
REMARK  132  A    between atoms: _333  and  _334
REMARK  133  A    between atoms: _333  and  _336
REMARK  134  A    between atoms: _336  and  _337
REMARK  135  A    between atoms: _342  and  _344
REMARK  136  A    between atoms: _344  and  _345
REMARK  137  A    between atoms: _344  and  _347
REMARK  138  A    between atoms: _347  and  _348
REMARK  139  A    between atoms: _348  and  _349
REMARK  140  A    between atoms: _352  and  _354
REMARK  141  A    between atoms: _354  and  _355
REMARK  142  A    between atoms: _354  and  _357
REMARK  143  A    between atoms: _357  and  _358
REMARK  144  A    between atoms: _360  and  _362
REMARK  145  A    between atoms: _362  and  _363
REMARK  146  A    between atoms: _362  and  _365
REMARK  147  A    between atoms: _365  and  _366
REMARK  148  A    between atoms: _369  and  _371
REMARK  149  A    between atoms: _371  and  _372
REMARK  150  A    between atoms: _371  and  _374
REMARK  151  A    between atoms: _374  and  _375
REMARK  152  A    between atoms: _377  and  _379
REMARK  153  A    between atoms: _379  and  _380
REMARK  154  A    between atoms: _379  and  _382
REMARK  155  A    between atoms: _382  and  _383
REMARK  156  A    between atoms: _386  and  _388
REMARK  157  A    between atoms: _388  and  _389
REMARK  158  A    between atoms: _388  and  _391
REMARK  159  A    between atoms: _391  and  _392
REMARK  160  A    between atoms: _395  and  _397
REMARK  161  A    between atoms: _397  and  _398
REMARK  162  A    between atoms: _397  and  _400
REMARK  163  A    between atoms: _400  and  _401
REMARK  164  A    between atoms: _401  and  _402
REMARK  165  A    between atoms: _407  and  _409
REMARK  166  A    between atoms: _409  and  _410
REMARK  167  A    between atoms: _409  and  _412
REMARK  168  A    between atoms: _412  and  _413
REMARK  169  A    between atoms: _419  and  _421
REMARK  170  A    between atoms: _421  and  _422
REMARK  171  A    between atoms: _421  and  _424
REMARK  172  A    between atoms: _426  and  _428
REMARK  173  A    between atoms: _428  and  _429
REMARK  174  A    between atoms: _432  and  _434
REMARK  175  A    between atoms: _434  and  _435
REMARK  176  A    between atoms: _437  and  _439
REMARK  177  A    between atoms: _439  and  _440
REMARK  178  A    between atoms: _442  and  _444
REMARK  179  A    between atoms: _444  and  _445
REMARK  180  A    between atoms: _444  and  _447
REMARK  181  A    between atoms: _447  and  _448
REMARK  182  A    between atoms: _451  and  _453
REMARK  183  A    between atoms: _453  and  _454
REMARK  184  A    between atoms: _456  and  _458
REMARK  185  A    between atoms: _458  and  _459
REMARK  186  A    between atoms: _458  and  _461
REMARK  187  A    between atoms: _461  and  _462
REMARK  188  A    between atoms: _468  and  _470
REMARK  189  A    between atoms: _470  and  _471
REMARK  190  A    between atoms: _470  and  _473
REMARK  191  A    between atoms: _476  and  _478
REMARK  192  A    between atoms: _478  and  _479
REMARK  193  A    between atoms: _478  and  _481
REMARK  194  A    between atoms: _481  and  _482
REMARK  195  A    between atoms: _485  and  _487
REMARK  196  A    between atoms: _487  and  _488
REMARK  197  A    between atoms: _490  and  _492
REMARK  198  A    between atoms: _492  and  _493
REMARK  199  A    between atoms: _492  and  _495
REMARK  200  A    between atoms: _495  and  _496
REMARK  201  A    between atoms: _496  and  _497
REMARK  202  A    between atoms: _497  and  MG_734
REMARK  203  A    between atoms: _499  and  _501
REMARK  204  A    between atoms: _501  and  _502
REMARK  205  A    between atoms: _504  and  _506
REMARK  206  A    between atoms: _506  and  _507
REMARK  207  A    between atoms: _506  and  _509
REMARK  208  A    between atoms: _509  and  _510
REMARK  209  A    between atoms: _512  and  _514
REMARK  210  A    between atoms: _514  and  _515
REMARK  211  A    between atoms: _518  and  _520
REMARK  212  A    between atoms: _520  and  _521
REMARK  213  A    between atoms: _520  and  _523
REMARK  214  A    between atoms: _523  and  _524
REMARK  215  A    between atoms: _529  and  _531
REMARK  216  A    between atoms: _531  and  _532
REMARK  217  A    between atoms: _531  and  _534
REMARK  218  A    between atoms: _534  and  _535
REMARK  219  A    between atoms: _540  and  _541
REMARK  220  A    between atoms: _543  and  _545
REMARK  221  A    between atoms: _545  and  _546
REMARK  222  A    between atoms: _545  and  _548
REMARK  223  A    between atoms: _548  and  _549
REMARK  224  A    between atoms: _552  and  _554
REMARK  225  A    between atoms: _554  and  _555
REMARK  226  A    between atoms: _554  and  _557
REMARK  227  A    between atoms: _557  and  _558
REMARK  228  A    between atoms: _558  and  _559
REMARK  229  A    between atoms: _561  and  _563
REMARK  230  A    between atoms: _563  and  _564
REMARK  231  A    between atoms: _563  and  _566
REMARK  232  A    between atoms: _566  and  _567
REMARK  233  A    between atoms: _572  and  _574
REMARK  234  A    between atoms: _574  and  _575
REMARK  235  A    between atoms: _574  and  _577
REMARK  236  A    between atoms: _577  and  _578
REMARK  237  A    between atoms: _583  and  _585
REMARK  238  A    between atoms: _585  and  _586
REMARK  239  A    between atoms: _588  and  _590
REMARK  240  A    between atoms: _590  and  _591
REMARK  241  A    between atoms: _590  and  _593
REMARK  242  A    between atoms: _591  and  _592
REMARK  243  A    between atoms: _591  and  _597
REMARK  244  A    between atoms: _592  and  MG_734
REMARK  245  A    between atoms: _593  and  _594
REMARK  246  A    between atoms: _597  and  _599
REMARK  247  A    between atoms: _599  and  _600
REMARK  248  A    between atoms: _599  and  _602
REMARK  249  A    between atoms: _602  and  _603
REMARK  250  A    between atoms: _608  and  _609
REMARK  251  A    between atoms: _611  and  _613
REMARK  252  A    between atoms: _613  and  _614
REMARK  253  A    between atoms: _616  and  _618
REMARK  254  A    between atoms: _618  and  _619
REMARK  255  A    between atoms: _622  and  _624
REMARK  256  A    between atoms: _624  and  _625
REMARK  257  A    between atoms: _624  and  _627
REMARK  258  A    between atoms: _627  and  _628
REMARK  259  A    between atoms: _631  and  _633
REMARK  260  A    between atoms: _633  and  _634
REMARK  261  A    between atoms: _633  and  _636
REMARK  262  A    between atoms: _636  and  _637
REMARK  263  A    between atoms: _637  and  _638
REMARK  264  A    between atoms: _638  and  _639
REMARK  265  A    between atoms: _648  and  _650
REMARK  266  A    between atoms: _650  and  _651
REMARK  267  A    between atoms: _650  and  _653
REMARK  268  A    between atoms: _653  and  _654
REMARK  269  A    between atoms: _664  and  _666
REMARK  270  A    between atoms: _666  and  _667
REMARK  271  A    between atoms: _666  and  _669
REMARK  272  A    between atoms: _669  and  _670
REMARK  273  A    between atoms: _676  and  _678
REMARK  274  A    between atoms: _678  and  _679
REMARK  275  A    between atoms: _681  and  _683
REMARK  276  A    between atoms: _683  and  _684
REMARK  277  A    between atoms: _683  and  _686
REMARK  278  A    between atoms: _686  and  _687
REMARK  279  A    between atoms: _690  and  _692
REMARK  280  A    between atoms: _692  and  _693
REMARK  281  A    between atoms: _692  and  _695
REMARK  282  A    between atoms: _698  and  _700
REMARK  283  A    between atoms: _700  and  _701
REMARK  284  A    between atoms: _700  and  _703
REMARK  285  A    between atoms: _703  and  _704
REMARK  286  A    between atoms: _710  and  _712
REMARK  287  A    between atoms: _712  and  _713
REMARK  288  A    between atoms: _712  and  _715
REMARK  289  A    between atoms: _715  and  _716
REMARK  290  A    between atoms: _719  and  _721
REMARK  291  A    between atoms: _721  and  _722
REMARK  292  A    between atoms: _721  and  _724
REMARK  293  A    between atoms: _728  and  _729
REMARK                            x       y       z     vdW  Elec       q    Type
REMARK                         _______ _______ _______ _____ _____    ______ ____
ROOT
ATOM      1  O   HOH     1      78.595  51.440 161.693  0.00  0.00    +0.000 OA
ENDROOT
TORSDOF 0
REMARK  Name = ../refined-set-2016/3f6e/3f6e_pocket.pdb
REMARK  293 active torsions:
REMARK  status: ('A' for Active; 'I' for Inactive)
REMARK    1  A    between atoms: _1  and  _3
REMARK    2  A    between atoms: _3  and  _4
REMARK    3  A    between atoms: _3  and  _6
REMARK    4  A    between atoms: _6  and  _7
REMARK    5  A    between atoms: _13  and  _14
REMARK    6  A    between atoms: _19  and  _21
REMARK    7  A    between atoms: _21  and  _22
REMARK    8  A    between atoms: _24  and  _26
REMARK    9  A    between atoms: _26  and  _27
REMARK   10  A    between atoms: _26  and  _29
REMARK   11  A    between atoms: _29  and  _30
REMARK   12  A    between atoms: _32  and  _34
REMARK   13  A    between atoms: _34  and  _35
REMARK   14  A    between atoms: _34  and  _37
REMARK   15  A    between atoms: _37  and  _38
REMARK   16  A    between atoms: _43  and  _45
REMARK   17  A    between atoms: _45  and  _46
REMARK   18  A    between atoms: _45  and  _48
REMARK   19  A    between atoms: _48  and  _49
REMARK   20  A    between atoms: _49  and  _50
REMARK   21  A    between atoms: _53  and  _55
REMARK   22  A    between atoms: _55  and  _56
REMARK   23  A    between atoms: _55  and  _58
REMARK   24  A    between atoms: _58  and  _59
REMARK   25  A    between atoms: _62  and  _64
REMARK   26  A    between atoms: _64  and  _65
REMARK   27  A    between atoms: _64  and  _67
REMARK   28  A    between atoms: _67  and  _68
REMARK   29  A    between atoms: _71  and  _73
REMARK   30  A    between atoms: _73  and  _74
REMARK   31  A    between atoms: _77  and  _79
REMARK   32  A    between atoms: _79  and  _80
REMARK   33  A    between atoms: _79  and  _82
REMARK   34  A    between atoms: _82  and  _83
REMARK   35  A    between atoms: _86  and  _88
REMARK   36  A    between atoms: _88  and  _89
REMARK   37  A    between atoms: _88  and  _91
REMARK   38  A    between atoms: _91  and  _92
REMARK   39  A    between atoms: _92  and  _93
REMARK   40  A    between atoms: _98  and  _100
REMARK   41  A    between atoms: _100  and  _101
REMARK   42  A    between atoms: _100  and  _103
REMARK   43  A    between atoms: _103  and  _104
REMARK   44  A    between atoms: _104  and  _105
REMARK   45  A    between atoms: _108  and  _110
REMARK   46  A    between atoms: _110  and  _111
REMARK   47  A    between atoms: _114  and  _116
REMARK   48  A    between atoms: _116  and  _117
REMARK   49  A    between atoms: _116  and  _119
REMARK   50  A    between atoms: _119  and  _120
REMARK   51  A    between atoms: _123  and  _125
REMARK   52  A    between atoms: _125  and  _126
REMARK   53  A    between atoms: _125  and  _128
REMARK   54  A    between atoms: _128  and  _129
REMARK   55  A    between atoms: _134  and  _136
REMARK   56  A    between atoms: _136  and  _137
REMARK   57  A    between atoms: _136  and  _139
REMARK   58  A    between atoms: _139  and  _140
REMARK   59  A    between atoms: _142  and  _144
REMARK   60  A    between atoms: _144  and  _145
REMARK   61  A    between atoms: _148  and  _150
REMARK   62  A    between atoms: _150  and  _151
REMARK   63  A    between atoms: _154  and  _156
REMARK   64  A    between atoms: _156  and  _157
REMARK   65  A    between atoms: _159  and  _161
REMARK   66  A    between atoms: _161  and  _162
REMARK   67  A    between atoms: _161  and  _164
REMARK   68  A    between atoms: _164  and  _165
REMARK   69  A    between atoms: _168  and  _170
REMARK   70  A    between atoms: _170  and  _171
REMARK   71  A    between atoms: _173  and  _175
REMARK   72  A    between atoms: _175  and  _176
REMARK   73  A    between atoms: _175  and  _178
REMARK   74  A    between atoms: _178  and  _179
REMARK   75  A    between atoms: _184  and  _186
REMARK   76  A    between atoms: _186  and  _187
REMARK   77  A    between atoms: _190  and  _192
REMARK   78  A    between atoms: _192  and  _193
REMARK   79  A    between atoms: _192  and  _195
REMARK   80  A    between atoms: _195  and  _196
REMARK   81  A    between atoms: _196  and  _197
REMARK   82  A    between atoms: _202  and  _204
REMARK   83  A    between atoms: _204  and  _205
REMARK   84  A    between atoms: _204  and  _207
REMARK   85  A    between atoms: _207  and  _208
REMARK   86  A    between atoms: _211  and  _213
REMARK   87  A    between atoms: _213  and  _214
REMARK   88  A    between atoms: _213  and  _216
REMARK   89  A    between atoms: _216  and  _217
REMARK   90  A    between atoms: _220  and  _222
REMARK   91  A    between atoms: _222  and  _223
REMARK   92  A    between atoms: _225  and  _227
REMARK   93  A    between atoms: _227  and  _228
REMARK   94  A    between atoms: _231  and  _233
REMARK   95  A    between atoms: _233  and  _234
REMARK   96  A    between atoms: _233  and  _236
REMARK   97  A    between atoms: _236  and  _237
REMARK   98  A    between atoms: _239  and  _241
REMARK   99  A    between atoms: _241  and  _242
REMARK  100  A    between atoms: _241  and  _244
REMARK  101  A    between atoms: _244  and  _245
REMARK  102  A    between atoms: _250  and  _252
REMARK  103  A    between atoms: _252  and  _253
REMARK  104  A    between atoms: _252  and  _255
REMARK  105  A    between atoms: _255  and  _256
REMARK  106  A    between atoms: _258  and  _260
REMARK  107  A    between atoms: _260  and  _261
REMARK  108  A    between atoms: _264  and  _266
REMARK  109  A    between atoms: _266  and  _267
REMARK  110  A    between atoms: _270  and  _272
REMARK  111  A    between atoms: _272  and  _273
REMARK  112  A    between atoms: _272  and  _275
REMARK  113  A    between atoms: _275  and  _276
REMARK  114  A    between atoms: _276  and  _277
REMARK  115  A    between atoms: _277  and  _278
REMARK  116  A    between atoms: _287  and  _289
REMARK  117  A    between atoms: _289  and  _290
REMARK  118  A    between atoms: _289  and  _292
REMARK  119  A    between atoms: _292  and  _293
REMARK  120  A    between atoms: _298  and  _299
REMARK  121  A    between atoms: _301  and  _303
REMARK  122  A    between atoms: _303  and  _304
REMARK  123  A    between atoms: _303  and  _306
REMARK  124  A    between atoms: _306  and  _307
REMARK  125  A    between atoms: _312  and  _314
REMARK  126  A    between atoms: _314  and  _315
REMARK  127  A    between atoms: _314  and  _317
REMARK  128  A    between atoms: _317  and  _318
REMARK  129  A    between atoms: _318  and  _319
REMARK  130  A    between atoms: _325  and  _326
REMARK  131  A    between atoms: _331  and  _333
REMARK  132  A    between atoms: _333  and  _334
REMARK  133  A    between atoms: _333  and  _336
REMARK  134  A    between atoms: _336  and  _337
REMARK  135  A    between atoms: _342  and  _344
REMARK  136  A    between atoms: _344  and  _345
REMARK  137  A    between atoms: _344  and  _347
REMARK  138  A    between atoms: _347  and  _348
REMARK  139  A    between atoms: _348  and  _349
REMARK  140  A    between atoms: _352  and  _354
REMARK  141  A    between atoms: _354  and  _355
REMARK  142  A    between atoms: _354  and  _357
REMARK  143  A    between atoms: _357  and  _358
REMARK  144  A    between atoms: _360  and  _362
REMARK  145  A    between atoms: _362  and  _363
REMARK  146  A    between atoms: _362  and  _365
REMARK  147  A    between atoms: _365  and  _366
REMARK  148  A    between atoms: _369  and  _371
REMARK  149  A    between atoms: _371  and  _372
REMARK  150  A    between atoms: _371  and  _374
REMARK  151  A    between atoms: _374  and  _375
REMARK  152  A    between atoms: _377  and  _379
REMARK  153  A    between atoms: _379  and  _380
REMARK  154  A    between atoms: _379  and  _382
REMARK  155  A    between atoms: _382  and  _383
REMARK  156  A    between atoms: _386  and  _388
REMARK  157  A    between atoms: _388  and  _389
REMARK  158  A    between atoms: _388  and  _391
REMARK  159  A    between atoms: _391  and  _392
REMARK  160  A    between atoms: _395  and  _397
REMARK  161  A    between atoms: _397  and  _398
REMARK  162  A    between atoms: _397  and  _400
REMARK  163  A    between atoms: _400  and  _401
REMARK  164  A    between atoms: _401  and  _402
REMARK  165  A    between atoms: _407  and  _409
REMARK  166  A    between atoms: _409  and  _410
REMARK  167  A    between atoms: _409  and  _412
REMARK  168  A    between atoms: _412  and  _413
REMARK  169  A    between atoms: _419  and  _421
REMARK  170  A    between atoms: _421  and  _422
REMARK  171  A    between atoms: _421  and  _424
REMARK  172  A    between atoms: _426  and  _428
REMARK  173  A    between atoms: _428  and  _429
REMARK  174  A    between atoms: _432  and  _434
REMARK  175  A    between atoms: _434  and  _435
REMARK  176  A    between atoms: _437  and  _439
REMARK  177  A    between atoms: _439  and  _440
REMARK  178  A    between atoms: _442  and  _444
REMARK  179  A    between atoms: _444  and  _445
REMARK  180  A    between atoms: _444  and  _447
REMARK  181  A    between atoms: _447  and  _448
REMARK  182  A    between atoms: _451  and  _453
REMARK  183  A    between atoms: _453  and  _454
REMARK  184  A    between atoms: _456  and  _458
REMARK  185  A    between atoms: _458  and  _459
REMARK  186  A    between atoms: _458  and  _461
REMARK  187  A    between atoms: _461  and  _462
REMARK  188  A    between atoms: _468  and  _470
REMARK  189  A    between atoms: _470  and  _471
REMARK  190  A    between atoms: _470  and  _473
REMARK  191  A    between atoms: _476  and  _478
REMARK  192  A    between atoms: _478  and  _479
REMARK  193  A    between atoms: _478  and  _481
REMARK  194  A    between atoms: _481  and  _482
REMARK  195  A    between atoms: _485  and  _487
REMARK  196  A    between atoms: _487  and  _488
REMARK  197  A    between atoms: _490  and  _492
REMARK  198  A    between atoms: _492  and  _493
REMARK  199  A    between atoms: _492  and  _495
REMARK  200  A    between atoms: _495  and  _496
REMARK  201  A    between atoms: _496  and  _497
REMARK  202  A    between atoms: _497  and  MG_734
REMARK  203  A    between atoms: _499  and  _501
REMARK  204  A    between atoms: _501  and  _502
REMARK  205  A    between atoms: _504  and  _506
REMARK  206  A    between atoms: _506  and  _507
REMARK  207  A    between atoms: _506  and  _509
REMARK  208  A    between atoms: _509  and  _510
REMARK  209  A    between atoms: _512  and  _514
REMARK  210  A    between atoms: _514  and  _515
REMARK  211  A    between atoms: _518  and  _520
REMARK  212  A    between atoms: _520  and  _521
REMARK  213  A    between atoms: _520  and  _523
REMARK  214  A    between atoms: _523  and  _524
REMARK  215  A    between atoms: _529  and  _531
REMARK  216  A    between atoms: _531  and  _532
REMARK  217  A    between atoms: _531  and  _534
REMARK  218  A    between atoms: _534  and  _535
REMARK  219  A    between atoms: _540  and  _541
REMARK  220  A    between atoms: _543  and  _545
REMARK  221  A    between atoms: _545  and  _546
REMARK  222  A    between atoms: _545  and  _548
REMARK  223  A    between atoms: _548  and  _549
REMARK  224  A    between atoms: _552  and  _554
REMARK  225  A    between atoms: _554  and  _555
REMARK  226  A    between atoms: _554  and  _557
REMARK  227  A    between atoms: _557  and  _558
REMARK  228  A    between atoms: _558  and  _559
REMARK  229  A    between atoms: _561  and  _563
REMARK  230  A    between atoms: _563  and  _564
REMARK  231  A    between atoms: _563  and  _566
REMARK  232  A    between atoms: _566  and  _567
REMARK  233  A    between atoms: _572  and  _574
REMARK  234  A    between atoms: _574  and  _575
REMARK  235  A    between atoms: _574  and  _577
REMARK  236  A    between atoms: _577  and  _578
REMARK  237  A    between atoms: _583  and  _585
REMARK  238  A    between atoms: _585  and  _586
REMARK  239  A    between atoms: _588  and  _590
REMARK  240  A    between atoms: _590  and  _591
REMARK  241  A    between atoms: _590  and  _593
REMARK  242  A    between atoms: _591  and  _592
REMARK  243  A    between atoms: _591  and  _597
REMARK  244  A    between atoms: _592  and  MG_734
REMARK  245  A    between atoms: _593  and  _594
REMARK  246  A    between atoms: _597  and  _599
REMARK  247  A    between atoms: _599  and  _600
REMARK  248  A    between atoms: _599  and  _602
REMARK  249  A    between atoms: _602  and  _603
REMARK  250  A    between atoms: _608  and  _609
REMARK  251  A    between atoms: _611  and  _613
REMARK  252  A    between atoms: _613  and  _614
REMARK  253  A    between atoms: _616  and  _618
REMARK  254  A    between atoms: _618  and  _619
REMARK  255  A    between atoms: _622  and  _624
REMARK  256  A    between atoms: _624  and  _625
REMARK  257  A    between atoms: _624  and  _627
REMARK  258  A    between atoms: _627  and  _628
REMARK  259  A    between atoms: _631  and  _633
REMARK  260  A    between atoms: _633  and  _634
REMARK  261  A    between atoms: _633  and  _636
REMARK  262  A    between atoms: _636  and  _637
REMARK  263  A    between atoms: _637  and  _638
REMARK  264  A    between atoms: _638  and  _639
REMARK  265  A    between atoms: _648  and  _650
REMARK  266  A    between atoms: _650  and  _651
REMARK  267  A    between atoms: _650  and  _653
REMARK  268  A    between atoms: _653  and  _654
REMARK  269  A    between atoms: _664  and  _666
REMARK  270  A    between atoms: _666  and  _667
REMARK  271  A    between atoms: _666  and  _669
REMARK  272  A    between atoms: _669  and  _670
REMARK  273  A    between atoms: _676  and  _678
REMARK  274  A    between atoms: _678  and  _679
REMARK  275  A    between atoms: _681  and  _683
REMARK  276  A    between atoms: _683  and  _684
REMARK  277  A    between atoms: _683  and  _686
REMARK  278  A    between atoms: _686  and  _687
REMARK  279  A    between atoms: _690  and  _692
REMARK  280  A    between atoms: _692  and  _693
REMARK  281  A    between atoms: _692  and  _695
REMARK  282  A    between atoms: _698  and  _700
REMARK  283  A    between atoms: _700  and  _701
REMARK  284  A    between atoms: _700  and  _703
REMARK  285  A    between atoms: _703  and  _704
REMARK  286  A    between atoms: _710  and  _712
REMARK  287  A    between atoms: _712  and  _713
REMARK  288  A    between atoms: _712  and  _715
REMARK  289  A    between atoms: _715  and  _716
REMARK  290  A    between atoms: _719  and  _721
REMARK  291  A    between atoms: _721  and  _722
REMARK  292  A    between atoms: _721  and  _724
REMARK  293  A    between atoms: _728  and  _729
REMARK                            x       y       z     vdW  Elec       q    Type
REMARK                         _______ _______ _______ _____ _____    ______ ____
ROOT
ATOM      1  O   HOH     1      64.184  59.029 173.042  0.00  0.00    +0.000 OA
ENDROOT
TORSDOF 0
REMARK  Name = ../refined-set-2016/3f6e/3f6e_pocket.pdb
REMARK  293 active torsions:
REMARK  status: ('A' for Active; 'I' for Inactive)
REMARK    1  A    between atoms: _1  and  _3
REMARK    2  A    between atoms: _3  and  _4
REMARK    3  A    between atoms: _3  and  _6
REMARK    4  A    between atoms: _6  and  _7
REMARK    5  A    between atoms: _13  and  _14
REMARK    6  A    between atoms: _19  and  _21
REMARK    7  A    between atoms: _21  and  _22
REMARK    8  A    between atoms: _24  and  _26
REMARK    9  A    between atoms: _26  and  _27
REMARK   10  A    between atoms: _26  and  _29
REMARK   11  A    between atoms: _29  and  _30
REMARK   12  A    between atoms: _32  and  _34
REMARK   13  A    between atoms: _34  and  _35
REMARK   14  A    between atoms: _34  and  _37
REMARK   15  A    between atoms: _37  and  _38
REMARK   16  A    between atoms: _43  and  _45
REMARK   17  A    between atoms: _45  and  _46
REMARK   18  A    between atoms: _45  and  _48
REMARK   19  A    between atoms: _48  and  _49
REMARK   20  A    between atoms: _49  and  _50
REMARK   21  A    between atoms: _53  and  _55
REMARK   22  A    between atoms: _55  and  _56
REMARK   23  A    between atoms: _55  and  _58
REMARK   24  A    between atoms: _58  and  _59
REMARK   25  A    between atoms: _62  and  _64
REMARK   26  A    between atoms: _64  and  _65
REMARK   27  A    between atoms: _64  and  _67
REMARK   28  A    between atoms: _67  and  _68
REMARK   29  A    between atoms: _71  and  _73
REMARK   30  A    between atoms: _73  and  _74
REMARK   31  A    between atoms: _77  and  _79
REMARK   32  A    between atoms: _79  and  _80
REMARK   33  A    between atoms: _79  and  _82
REMARK   34  A    between atoms: _82  and  _83
REMARK   35  A    between atoms: _86  and  _88
REMARK   36  A    between atoms: _88  and  _89
REMARK   37  A    between atoms: _88  and  _91
REMARK   38  A    between atoms: _91  and  _92
REMARK   39  A    between atoms: _92  and  _93
REMARK   40  A    between atoms: _98  and  _100
REMARK   41  A    between atoms: _100  and  _101
REMARK   42  A    between atoms: _100  and  _103
REMARK   43  A    between atoms: _103  and  _104
REMARK   44  A    between atoms: _104  and  _105
REMARK   45  A    between atoms: _108  and  _110
REMARK   46  A    between atoms: _110  and  _111
REMARK   47  A    between atoms: _114  and  _116
REMARK   48  A    between atoms: _116  and  _117
REMARK   49  A    between atoms: _116  and  _119
REMARK   50  A    between atoms: _119  and  _120
REMARK   51  A    between atoms: _123  and  _125
REMARK   52  A    between atoms: _125  and  _126
REMARK   53  A    between atoms: _125  and  _128
REMARK   54  A    between atoms: _128  and  _129
REMARK   55  A    between atoms: _134  and  _136
REMARK   56  A    between atoms: _136  and  _137
REMARK   57  A    between atoms: _136  and  _139
REMARK   58  A    between atoms: _139  and  _140
REMARK   59  A    between atoms: _142  and  _144
REMARK   60  A    between atoms: _144  and  _145
REMARK   61  A    between atoms: _148  and  _150
REMARK   62  A    between atoms: _150  and  _151
REMARK   63  A    between atoms: _154  and  _156
REMARK   64  A    between atoms: _156  and  _157
REMARK   65  A    between atoms: _159  and  _161
REMARK   66  A    between atoms: _161  and  _162
REMARK   67  A    between atoms: _161  and  _164
REMARK   68  A    between atoms: _164  and  _165
REMARK   69  A    between atoms: _168  and  _170
REMARK   70  A    between atoms: _170  and  _171
REMARK   71  A    between atoms: _173  and  _175
REMARK   72  A    between atoms: _175  and  _176
REMARK   73  A    between atoms: _175  and  _178
REMARK   74  A    between atoms: _178  and  _179
REMARK   75  A    between atoms: _184  and  _186
REMARK   76  A    between atoms: _186  and  _187
REMARK   77  A    between atoms: _190  and  _192
REMARK   78  A    between atoms: _192  and  _193
REMARK   79  A    between atoms: _192  and  _195
REMARK   80  A    between atoms: _195  and  _196
REMARK   81  A    between atoms: _196  and  _197
REMARK   82  A    between atoms: _202  and  _204
REMARK   83  A    between atoms: _204  and  _205
REMARK   84  A    between atoms: _204  and  _207
REMARK   85  A    between atoms: _207  and  _208
REMARK   86  A    between atoms: _211  and  _213
REMARK   87  A    between atoms: _213  and  _214
REMARK   88  A    between atoms: _213  and  _216
REMARK   89  A    between atoms: _216  and  _217
REMARK   90  A    between atoms: _220  and  _222
REMARK   91  A    between atoms: _222  and  _223
REMARK   92  A    between atoms: _225  and  _227
REMARK   93  A    between atoms: _227  and  _228
REMARK   94  A    between atoms: _231  and  _233
REMARK   95  A    between atoms: _233  and  _234
REMARK   96  A    between atoms: _233  and  _236
REMARK   97  A    between atoms: _236  and  _237
REMARK   98  A    between atoms: _239  and  _241
REMARK   99  A    between atoms: _241  and  _242
REMARK  100  A    between atoms: _241  and  _244
REMARK  101  A    between atoms: _244  and  _245
REMARK  102  A    between atoms: _250  and  _252
REMARK  103  A    between atoms: _252  and  _253
REMARK  104  A    between atoms: _252  and  _255
REMARK  105  A    between atoms: _255  and  _256
REMARK  106  A    between atoms: _258  and  _260
REMARK  107  A    between atoms: _260  and  _261
REMARK  108  A    between atoms: _264  and  _266
REMARK  109  A    between atoms: _266  and  _267
REMARK  110  A    between atoms: _270  and  _272
REMARK  111  A    between atoms: _272  and  _273
REMARK  112  A    between atoms: _272  and  _275
REMARK  113  A    between atoms: _275  and  _276
REMARK  114  A    between atoms: _276  and  _277
REMARK  115  A    between atoms: _277  and  _278
REMARK  116  A    between atoms: _287  and  _289
REMARK  117  A    between atoms: _289  and  _290
REMARK  118  A    between atoms: _289  and  _292
REMARK  119  A    between atoms: _292  and  _293
REMARK  120  A    between atoms: _298  and  _299
REMARK  121  A    between atoms: _301  and  _303
REMARK  122  A    between atoms: _303  and  _304
REMARK  123  A    between atoms: _303  and  _306
REMARK  124  A    between atoms: _306  and  _307
REMARK  125  A    between atoms: _312  and  _314
REMARK  126  A    between atoms: _314  and  _315
REMARK  127  A    between atoms: _314  and  _317
REMARK  128  A    between atoms: _317  and  _318
REMARK  129  A    between atoms: _318  and  _319
REMARK  130  A    between atoms: _325  and  _326
REMARK  131  A    between atoms: _331  and  _333
REMARK  132  A    between atoms: _333  and  _334
REMARK  133  A    between atoms: _333  and  _336
REMARK  134  A    between atoms: _336  and  _337
REMARK  135  A    between atoms: _342  and  _344
REMARK  136  A    between atoms: _344  and  _345
REMARK  137  A    between atoms: _344  and  _347
REMARK  138  A    between atoms: _347  and  _348
REMARK  139  A    between atoms: _348  and  _349
REMARK  140  A    between atoms: _352  and  _354
REMARK  141  A    between atoms: _354  and  _355
REMARK  142  A    between atoms: _354  and  _357
REMARK  143  A    between atoms: _357  and  _358
REMARK  144  A    between atoms: _360  and  _362
REMARK  145  A    between atoms: _362  and  _363
REMARK  146  A    between atoms: _362  and  _365
REMARK  147  A    between atoms: _365  and  _366
REMARK  148  A    between atoms: _369  and  _371
REMARK  149  A    between atoms: _371  and  _372
REMARK  150  A    between atoms: _371  and  _374
REMARK  151  A    between atoms: _374  and  _375
REMARK  152  A    between atoms: _377  and  _379
REMARK  153  A    between atoms: _379  and  _380
REMARK  154  A    between atoms: _379  and  _382
REMARK  155  A    between atoms: _382  and  _383
REMARK  156  A    between atoms: _386  and  _388
REMARK  157  A    between atoms: _388  and  _389
REMARK  158  A    between atoms: _388  and  _391
REMARK  159  A    between atoms: _391  and  _392
REMARK  160  A    between atoms: _395  and  _397
REMARK  161  A    between atoms: _397  and  _398
REMARK  162  A    between atoms: _397  and  _400
REMARK  163  A    between atoms: _400  and  _401
REMARK  164  A    between atoms: _401  and  _402
REMARK  165  A    between atoms: _407  and  _409
REMARK  166  A    between atoms: _409  and  _410
REMARK  167  A    between atoms: _409  and  _412
REMARK  168  A    between atoms: _412  and  _413
REMARK  169  A    between atoms: _419  and  _421
REMARK  170  A    between atoms: _421  and  _422
REMARK  171  A    between atoms: _421  and  _424
REMARK  172  A    between atoms: _426  and  _428
REMARK  173  A    between atoms: _428  and  _429
REMARK  174  A    between atoms: _432  and  _434
REMARK  175  A    between atoms: _434  and  _435
REMARK  176  A    between atoms: _437  and  _439
REMARK  177  A    between atoms: _439  and  _440
REMARK  178  A    between atoms: _442  and  _444
REMARK  179  A    between atoms: _444  and  _445
REMARK  180  A    between atoms: _444  and  _447
REMARK  181  A    between atoms: _447  and  _448
REMARK  182  A    between atoms: _451  and  _453
REMARK  183  A    between atoms: _453  and  _454
REMARK  184  A    between atoms: _456  and  _458
REMARK  185  A    between atoms: _458  and  _459
REMARK  186  A    between atoms: _458  and  _461
REMARK  187  A    between atoms: _461  and  _462
REMARK  188  A    between atoms: _468  and  _470
REMARK  189  A    between atoms: _470  and  _471
REMARK  190  A    between atoms: _470  and  _473
REMARK  191  A    between atoms: _476  and  _478
REMARK  192  A    between atoms: _478  and  _479
REMARK  193  A    between atoms: _478  and  _481
REMARK  194  A    between atoms: _481  and  _482
REMARK  195  A    between atoms: _485  and  _487
REMARK  196  A    between atoms: _487  and  _488
REMARK  197  A    between atoms: _490  and  _492
REMARK  198  A    between atoms: _492  and  _493
REMARK  199  A    between atoms: _492  and  _495
REMARK  200  A    between atoms: _495  and  _496
REMARK  201  A    between atoms: _496  and  _497
REMARK  202  A    between atoms: _497  and  MG_734
REMARK  203  A    between atoms: _499  and  _501
REMARK  204  A    between atoms: _501  and  _502
REMARK  205  A    between atoms: _504  and  _506
REMARK  206  A    between atoms: _506  and  _507
REMARK  207  A    between atoms: _506  and  _509
REMARK  208  A    between atoms: _509  and  _510
REMARK  209  A    between atoms: _512  and  _514
REMARK  210  A    between atoms: _514  and  _515
REMARK  211  A    between atoms: _518  and  _520
REMARK  212  A    between atoms: _520  and  _521
REMARK  213  A    between atoms: _520  and  _523
REMARK  214  A    between atoms: _523  and  _524
REMARK  215  A    between atoms: _529  and  _531
REMARK  216  A    between atoms: _531  and  _532
REMARK  217  A    between atoms: _531  and  _534
REMARK  218  A    between atoms: _534  and  _535
REMARK  219  A    between atoms: _540  and  _541
REMARK  220  A    between atoms: _543  and  _545
REMARK  221  A    between atoms: _545  and  _546
REMARK  222  A    between atoms: _545  and  _548
REMARK  223  A    between atoms: _548  and  _549
REMARK  224  A    between atoms: _552  and  _554
REMARK  225  A    between atoms: _554  and  _555
REMARK  226  A    between atoms: _554  and  _557
REMARK  227  A    between atoms: _557  and  _558
REMARK  228  A    between atoms: _558  and  _559
REMARK  229  A    between atoms: _561  and  _563
REMARK  230  A    between atoms: _563  and  _564
REMARK  231  A    between atoms: _563  and  _566
REMARK  232  A    between atoms: _566  and  _567
REMARK  233  A    between atoms: _572  and  _574
REMARK  234  A    between atoms: _574  and  _575
REMARK  235  A    between atoms: _574  and  _577
REMARK  236  A    between atoms: _577  and  _578
REMARK  237  A    between atoms: _583  and  _585
REMARK  238  A    between atoms: _585  and  _586
REMARK  239  A    between atoms: _588  and  _590
REMARK  240  A    between atoms: _590  and  _591
REMARK  241  A    between atoms: _590  and  _593
REMARK  242  A    between atoms: _591  and  _592
REMARK  243  A    between atoms: _591  and  _597
REMARK  244  A    between atoms: _592  and  MG_734
REMARK  245  A    between atoms: _593  and  _594
REMARK  246  A    between atoms: _597  and  _599
REMARK  247  A    between atoms: _599  and  _600
REMARK  248  A    between atoms: _599  and  _602
REMARK  249  A    between atoms: _602  and  _603
REMARK  250  A    between atoms: _608  and  _609
REMARK  251  A    between atoms: _611  and  _613
REMARK  252  A    between atoms: _613  and  _614
REMARK  253  A    between atoms: _616  and  _618
REMARK  254  A    between atoms: _618  and  _619
REMARK  255  A    between atoms: _622  and  _624
REMARK  256  A    between atoms: _624  and  _625
REMARK  257  A    between atoms: _624  and  _627
REMARK  258  A    between atoms: _627  and  _628
REMARK  259  A    between atoms: _631  and  _633
REMARK  260  A    between atoms: _633  and  _634
REMARK  261  A    between atoms: _633  and  _636
REMARK  262  A    between atoms: _636  and  _637
REMARK  263  A    between atoms: _637  and  _638
REMARK  264  A    between atoms: _638  and  _639
REMARK  265  A    between atoms: _648  and  _650
REMARK  266  A    between atoms: _650  and  _651
REMARK  267  A    between atoms: _650  and  _653
REMARK  268  A    between atoms: _653  and  _654
REMARK  269  A    between atoms: _664  and  _666
REMARK  270  A    between atoms: _666  and  _667
REMARK  271  A    between atoms: _666  and  _669
REMARK  272  A    between atoms: _669  and  _670
REMARK  273  A    between atoms: _676  and  _678
REMARK  274  A    between atoms: _678  and  _679
REMARK  275  A    between atoms: _681  and  _683
REMARK  276  A    between atoms: _683  and  _684
REMARK  277  A    between atoms: _683  and  _686
REMARK  278  A    between atoms: _686  and  _687
REMARK  279  A    between atoms: _690  and  _692
REMARK  280  A    between atoms: _692  and  _693
REMARK  281  A    between atoms: _692  and  _695
REMARK  282  A    between atoms: _698  and  _700
REMARK  283  A    between atoms: _700  and  _701
REMARK  284  A    between atoms: _700  and  _703
REMARK  285  A    between atoms: _703  and  _704
REMARK  286  A    between atoms: _710  and  _712
REMARK  287  A    between atoms: _712  and  _713
REMARK  288  A    between atoms: _712  and  _715
REMARK  289  A    between atoms: _715  and  _716
REMARK  290  A    between atoms: _719  and  _721
REMARK  291  A    between atoms: _721  and  _722
REMARK  292  A    between atoms: _721  and  _724
REMARK  293  A    between atoms: _728  and  _729
REMARK                            x       y       z     vdW  Elec       q    Type
REMARK                         _______ _______ _______ _____ _____    ______ ____
ROOT
ATOM      1  O   HOH     1      66.144  65.004 158.810  0.00  0.00    +0.000 OA
ENDROOT
TORSDOF 0
REMARK  Name = ../refined-set-2016/3f6e/3f6e_pocket.pdb
REMARK  293 active torsions:
REMARK  status: ('A' for Active; 'I' for Inactive)
REMARK    1  A    between atoms: _1  and  _3
REMARK    2  A    between atoms: _3  and  _4
REMARK    3  A    between atoms: _3  and  _6
REMARK    4  A    between atoms: _6  and  _7
REMARK    5  A    between atoms: _13  and  _14
REMARK    6  A    between atoms: _19  and  _21
REMARK    7  A    between atoms: _21  and  _22
REMARK    8  A    between atoms: _24  and  _26
REMARK    9  A    between atoms: _26  and  _27
REMARK   10  A    between atoms: _26  and  _29
REMARK   11  A    between atoms: _29  and  _30
REMARK   12  A    between atoms: _32  and  _34
REMARK   13  A    between atoms: _34  and  _35
REMARK   14  A    between atoms: _34  and  _37
REMARK   15  A    between atoms: _37  and  _38
REMARK   16  A    between atoms: _43  and  _45
REMARK   17  A    between atoms: _45  and  _46
REMARK   18  A    between atoms: _45  and  _48
REMARK   19  A    between atoms: _48  and  _49
REMARK   20  A    between atoms: _49  and  _50
REMARK   21  A    between atoms: _53  and  _55
REMARK   22  A    between atoms: _55  and  _56
REMARK   23  A    between atoms: _55  and  _58
REMARK   24  A    between atoms: _58  and  _59
REMARK   25  A    between atoms: _62  and  _64
REMARK   26  A    between atoms: _64  and  _65
REMARK   27  A    between atoms: _64  and  _67
REMARK   28  A    between atoms: _67  and  _68
REMARK   29  A    between atoms: _71  and  _73
REMARK   30  A    between atoms: _73  and  _74
REMARK   31  A    between atoms: _77  and  _79
REMARK   32  A    between atoms: _79  and  _80
REMARK   33  A    between atoms: _79  and  _82
REMARK   34  A    between atoms: _82  and  _83
REMARK   35  A    between atoms: _86  and  _88
REMARK   36  A    between atoms: _88  and  _89
REMARK   37  A    between atoms: _88  and  _91
REMARK   38  A    between atoms: _91  and  _92
REMARK   39  A    between atoms: _92  and  _93
REMARK   40  A    between atoms: _98  and  _100
REMARK   41  A    between atoms: _100  and  _101
REMARK   42  A    between atoms: _100  and  _103
REMARK   43  A    between atoms: _103  and  _104
REMARK   44  A    between atoms: _104  and  _105
REMARK   45  A    between atoms: _108  and  _110
REMARK   46  A    between atoms: _110  and  _111
REMARK   47  A    between atoms: _114  and  _116
REMARK   48  A    between atoms: _116  and  _117
REMARK   49  A    between atoms: _116  and  _119
REMARK   50  A    between atoms: _119  and  _120
REMARK   51  A    between atoms: _123  and  _125
REMARK   52  A    between atoms: _125  and  _126
REMARK   53  A    between atoms: _125  and  _128
REMARK   54  A    between atoms: _128  and  _129
REMARK   55  A    between atoms: _134  and  _136
REMARK   56  A    between atoms: _136  and  _137
REMARK   57  A    between atoms: _136  and  _139
REMARK   58  A    between atoms: _139  and  _140
REMARK   59  A    between atoms: _142  and  _144
REMARK   60  A    between atoms: _144  and  _145
REMARK   61  A    between atoms: _148  and  _150
REMARK   62  A    between atoms: _150  and  _151
REMARK   63  A    between atoms: _154  and  _156
REMARK   64  A    between atoms: _156  and  _157
REMARK   65  A    between atoms: _159  and  _161
REMARK   66  A    between atoms: _161  and  _162
REMARK   67  A    between atoms: _161  and  _164
REMARK   68  A    between atoms: _164  and  _165
REMARK   69  A    between atoms: _168  and  _170
REMARK   70  A    between atoms: _170  and  _171
REMARK   71  A    between atoms: _173  and  _175
REMARK   72  A    between atoms: _175  and  _176
REMARK   73  A    between atoms: _175  and  _178
REMARK   74  A    between atoms: _178  and  _179
REMARK   75  A    between atoms: _184  and  _186
REMARK   76  A    between atoms: _186  and  _187
REMARK   77  A    between atoms: _190  and  _192
REMARK   78  A    between atoms: _192  and  _193
REMARK   79  A    between atoms: _192  and  _195
REMARK   80  A    between atoms: _195  and  _196
REMARK   81  A    between atoms: _196  and  _197
REMARK   82  A    between atoms: _202  and  _204
REMARK   83  A    between atoms: _204  and  _205
REMARK   84  A    between atoms: _204  and  _207
REMARK   85  A    between atoms: _207  and  _208
REMARK   86  A    between atoms: _211  and  _213
REMARK   87  A    between atoms: _213  and  _214
REMARK   88  A    between atoms: _213  and  _216
REMARK   89  A    between atoms: _216  and  _217
REMARK   90  A    between atoms: _220  and  _222
REMARK   91  A    between atoms: _222  and  _223
REMARK   92  A    between atoms: _225  and  _227
REMARK   93  A    between atoms: _227  and  _228
REMARK   94  A    between atoms: _231  and  _233
REMARK   95  A    between atoms: _233  and  _234
REMARK   96  A    between atoms: _233  and  _236
REMARK   97  A    between atoms: _236  and  _237
REMARK   98  A    between atoms: _239  and  _241
REMARK   99  A    between atoms: _241  and  _242
REMARK  100  A    between atoms: _241  and  _244
REMARK  101  A    between atoms: _244  and  _245
REMARK  102  A    between atoms: _250  and  _252
REMARK  103  A    between atoms: _252  and  _253
REMARK  104  A    between atoms: _252  and  _255
REMARK  105  A    between atoms: _255  and  _256
REMARK  106  A    between atoms: _258  and  _260
REMARK  107  A    between atoms: _260  and  _261
REMARK  108  A    between atoms: _264  and  _266
REMARK  109  A    between atoms: _266  and  _267
REMARK  110  A    between atoms: _270  and  _272
REMARK  111  A    between atoms: _272  and  _273
REMARK  112  A    between atoms: _272  and  _275
REMARK  113  A    between atoms: _275  and  _276
REMARK  114  A    between atoms: _276  and  _277
REMARK  115  A    between atoms: _277  and  _278
REMARK  116  A    between atoms: _287  and  _289
REMARK  117  A    between atoms: _289  and  _290
REMARK  118  A    between atoms: _289  and  _292
REMARK  119  A    between atoms: _292  and  _293
REMARK  120  A    between atoms: _298  and  _299
REMARK  121  A    between atoms: _301  and  _303
REMARK  122  A    between atoms: _303  and  _304
REMARK  123  A    between atoms: _303  and  _306
REMARK  124  A    between atoms: _306  and  _307
REMARK  125  A    between atoms: _312  and  _314
REMARK  126  A    between atoms: _314  and  _315
REMARK  127  A    between atoms: _314  and  _317
REMARK  128  A    between atoms: _317  and  _318
REMARK  129  A    between atoms: _318  and  _319
REMARK  130  A    between atoms: _325  and  _326
REMARK  131  A    between atoms: _331  and  _333
REMARK  132  A    between atoms: _333  and  _334
REMARK  133  A    between atoms: _333  and  _336
REMARK  134  A    between atoms: _336  and  _337
REMARK  135  A    between atoms: _342  and  _344
REMARK  136  A    between atoms: _344  and  _345
REMARK  137  A    between atoms: _344  and  _347
REMARK  138  A    between atoms: _347  and  _348
REMARK  139  A    between atoms: _348  and  _349
REMARK  140  A    between atoms: _352  and  _354
REMARK  141  A    between atoms: _354  and  _355
REMARK  142  A    between atoms: _354  and  _357
REMARK  143  A    between atoms: _357  and  _358
REMARK  144  A    between atoms: _360  and  _362
REMARK  145  A    between atoms: _362  and  _363
REMARK  146  A    between atoms: _362  and  _365
REMARK  147  A    between atoms: _365  and  _366
REMARK  148  A    between atoms: _369  and  _371
REMARK  149  A    between atoms: _371  and  _372
REMARK  150  A    between atoms: _371  and  _374
REMARK  151  A    between atoms: _374  and  _375
REMARK  152  A    between atoms: _377  and  _379
REMARK  153  A    between atoms: _379  and  _380
REMARK  154  A    between atoms: _379  and  _382
REMARK  155  A    between atoms: _382  and  _383
REMARK  156  A    between atoms: _386  and  _388
REMARK  157  A    between atoms: _388  and  _389
REMARK  158  A    between atoms: _388  and  _391
REMARK  159  A    between atoms: _391  and  _392
REMARK  160  A    between atoms: _395  and  _397
REMARK  161  A    between atoms: _397  and  _398
REMARK  162  A    between atoms: _397  and  _400
REMARK  163  A    between atoms: _400  and  _401
REMARK  164  A    between atoms: _401  and  _402
REMARK  165  A    between atoms: _407  and  _409
REMARK  166  A    between atoms: _409  and  _410
REMARK  167  A    between atoms: _409  and  _412
REMARK  168  A    between atoms: _412  and  _413
REMARK  169  A    between atoms: _419  and  _421
REMARK  170  A    between atoms: _421  and  _422
REMARK  171  A    between atoms: _421  and  _424
REMARK  172  A    between atoms: _426  and  _428
REMARK  173  A    between atoms: _428  and  _429
REMARK  174  A    between atoms: _432  and  _434
REMARK  175  A    between atoms: _434  and  _435
REMARK  176  A    between atoms: _437  and  _439
REMARK  177  A    between atoms: _439  and  _440
REMARK  178  A    between atoms: _442  and  _444
REMARK  179  A    between atoms: _444  and  _445
REMARK  180  A    between atoms: _444  and  _447
REMARK  181  A    between atoms: _447  and  _448
REMARK  182  A    between atoms: _451  and  _453
REMARK  183  A    between atoms: _453  and  _454
REMARK  184  A    between atoms: _456  and  _458
REMARK  185  A    between atoms: _458  and  _459
REMARK  186  A    between atoms: _458  and  _461
REMARK  187  A    between atoms: _461  and  _462
REMARK  188  A    between atoms: _468  and  _470
REMARK  189  A    between atoms: _470  and  _471
REMARK  190  A    between atoms: _470  and  _473
REMARK  191  A    between atoms: _476  and  _478
REMARK  192  A    between atoms: _478  and  _479
REMARK  193  A    between atoms: _478  and  _481
REMARK  194  A    between atoms: _481  and  _482
REMARK  195  A    between atoms: _485  and  _487
REMARK  196  A    between atoms: _487  and  _488
REMARK  197  A    between atoms: _490  and  _492
REMARK  198  A    between atoms: _492  and  _493
REMARK  199  A    between atoms: _492  and  _495
REMARK  200  A    between atoms: _495  and  _496
REMARK  201  A    between atoms: _496  and  _497
REMARK  202  A    between atoms: _497  and  MG_734
REMARK  203  A    between atoms: _499  and  _501
REMARK  204  A    between atoms: _501  and  _502
REMARK  205  A    between atoms: _504  and  _506
REMARK  206  A    between atoms: _506  and  _507
REMARK  207  A    between atoms: _506  and  _509
REMARK  208  A    between atoms: _509  and  _510
REMARK  209  A    between atoms: _512  and  _514
REMARK  210  A    between atoms: _514  and  _515
REMARK  211  A    between atoms: _518  and  _520
REMARK  212  A    between atoms: _520  and  _521
REMARK  213  A    between atoms: _520  and  _523
REMARK  214  A    between atoms: _523  and  _524
REMARK  215  A    between atoms: _529  and  _531
REMARK  216  A    between atoms: _531  and  _532
REMARK  217  A    between atoms: _531  and  _534
REMARK  218  A    between atoms: _534  and  _535
REMARK  219  A    between atoms: _540  and  _541
REMARK  220  A    between atoms: _543  and  _545
REMARK  221  A    between atoms: _545  and  _546
REMARK  222  A    between atoms: _545  and  _548
REMARK  223  A    between atoms: _548  and  _549
REMARK  224  A    between atoms: _552  and  _554
REMARK  225  A    between atoms: _554  and  _555
REMARK  226  A    between atoms: _554  and  _557
REMARK  227  A    between atoms: _557  and  _558
REMARK  228  A    between atoms: _558  and  _559
REMARK  229  A    between atoms: _561  and  _563
REMARK  230  A    between atoms: _563  and  _564
REMARK  231  A    between atoms: _563  and  _566
REMARK  232  A    between atoms: _566  and  _567
REMARK  233  A    between atoms: _572  and  _574
REMARK  234  A    between atoms: _574  and  _575
REMARK  235  A    between atoms: _574  and  _577
REMARK  236  A    between atoms: _577  and  _578
REMARK  237  A    between atoms: _583  and  _585
REMARK  238  A    between atoms: _585  and  _586
REMARK  239  A    between atoms: _588  and  _590
REMARK  240  A    between atoms: _590  and  _591
REMARK  241  A    between atoms: _590  and  _593
REMARK  242  A    between atoms: _591  and  _592
REMARK  243  A    between atoms: _591  and  _597
REMARK  244  A    between atoms: _592  and  MG_734
REMARK  245  A    between atoms: _593  and  _594
REMARK  246  A    between atoms: _597  and  _599
REMARK  247  A    between atoms: _599  and  _600
REMARK  248  A    between atoms: _599  and  _602
REMARK  249  A    between atoms: _602  and  _603
REMARK  250  A    between atoms: _608  and  _609
REMARK  251  A    between atoms: _611  and  _613
REMARK  252  A    between atoms: _613  and  _614
REMARK  253  A    between atoms: _616  and  _618
REMARK  254  A    between atoms: _618  and  _619
REMARK  255  A    between atoms: _622  and  _624
REMARK  256  A    between atoms: _624  and  _625
REMARK  257  A    between atoms: _624  and  _627
REMARK  258  A    between atoms: _627  and  _628
REMARK  259  A    between atoms: _631  and  _633
REMARK  260  A    between atoms: _633  and  _634
REMARK  261  A    between atoms: _633  and  _636
REMARK  262  A    between atoms: _636  and  _637
REMARK  263  A    between atoms: _637  and  _638
REMARK  264  A    between atoms: _638  and  _639
REMARK  265  A    between atoms: _648  and  _650
REMARK  266  A    between atoms: _650  and  _651
REMARK  267  A    between atoms: _650  and  _653
REMARK  268  A    between atoms: _653  and  _654
REMARK  269  A    between atoms: _664  and  _666
REMARK  270  A    between atoms: _666  and  _667
REMARK  271  A    between atoms: _666  and  _669
REMARK  272  A    between atoms: _669  and  _670
REMARK  273  A    between atoms: _676  and  _678
REMARK  274  A    between atoms: _678  and  _679
REMARK  275  A    between atoms: _681  and  _683
REMARK  276  A    between atoms: _683  and  _684
REMARK  277  A    between atoms: _683  and  _686
REMARK  278  A    between atoms: _686  and  _687
REMARK  279  A    between atoms: _690  and  _692
REMARK  280  A    between atoms: _692  and  _693
REMARK  281  A    between atoms: _692  and  _695
REMARK  282  A    between atoms: _698  and  _700
REMARK  283  A    between atoms: _700  and  _701
REMARK  284  A    between atoms: _700  and  _703
REMARK  285  A    between atoms: _703  and  _704
REMARK  286  A    between atoms: _710  and  _712
REMARK  287  A    between atoms: _712  and  _713
REMARK  288  A    between atoms: _712  and  _715
REMARK  289  A    between atoms: _715  and  _716
REMARK  290  A    between atoms: _719  and  _721
REMARK  291  A    between atoms: _721  and  _722
REMARK  292  A    between atoms: _721  and  _724
REMARK  293  A    between atoms: _728  and  _729
REMARK                            x       y       z     vdW  Elec       q    Type
REMARK                         _______ _______ _______ _____ _____    ______ ____
ROOT
ATOM      1  O   HOH     1      68.805  49.794 174.678  0.00  0.00    +0.000 OA
ENDROOT
TORSDOF 0
REMARK  Name = ../refined-set-2016/3f6e/3f6e_pocket.pdb
REMARK  293 active torsions:
REMARK  status: ('A' for Active; 'I' for Inactive)
REMARK    1  A    between atoms: _1  and  _3
REMARK    2  A    between atoms: _3  and  _4
REMARK    3  A    between atoms: _3  and  _6
REMARK    4  A    between atoms: _6  and  _7
REMARK    5  A    between atoms: _13  and  _14
REMARK    6  A    between atoms: _19  and  _21
REMARK    7  A    between atoms: _21  and  _22
REMARK    8  A    between atoms: _24  and  _26
REMARK    9  A    between atoms: _26  and  _27
REMARK   10  A    between atoms: _26  and  _29
REMARK   11  A    between atoms: _29  and  _30
REMARK   12  A    between atoms: _32  and  _34
REMARK   13  A    between atoms: _34  and  _35
REMARK   14  A    between atoms: _34  and  _37
REMARK   15  A    between atoms: _37  and  _38
REMARK   16  A    between atoms: _43  and  _45
REMARK   17  A    between atoms: _45  and  _46
REMARK   18  A    between atoms: _45  and  _48
REMARK   19  A    between atoms: _48  and  _49
REMARK   20  A    between atoms: _49  and  _50
REMARK   21  A    between atoms: _53  and  _55
REMARK   22  A    between atoms: _55  and  _56
REMARK   23  A    between atoms: _55  and  _58
REMARK   24  A    between atoms: _58  and  _59
REMARK   25  A    between atoms: _62  and  _64
REMARK   26  A    between atoms: _64  and  _65
REMARK   27  A    between atoms: _64  and  _67
REMARK   28  A    between atoms: _67  and  _68
REMARK   29  A    between atoms: _71  and  _73
REMARK   30  A    between atoms: _73  and  _74
REMARK   31  A    between atoms: _77  and  _79
REMARK   32  A    between atoms: _79  and  _80
REMARK   33  A    between atoms: _79  and  _82
REMARK   34  A    between atoms: _82  and  _83
REMARK   35  A    between atoms: _86  and  _88
REMARK   36  A    between atoms: _88  and  _89
REMARK   37  A    between atoms: _88  and  _91
REMARK   38  A    between atoms: _91  and  _92
REMARK   39  A    between atoms: _92  and  _93
REMARK   40  A    between atoms: _98  and  _100
REMARK   41  A    between atoms: _100  and  _101
REMARK   42  A    between atoms: _100  and  _103
REMARK   43  A    between atoms: _103  and  _104
REMARK   44  A    between atoms: _104  and  _105
REMARK   45  A    between atoms: _108  and  _110
REMARK   46  A    between atoms: _110  and  _111
REMARK   47  A    between atoms: _114  and  _116
REMARK   48  A    between atoms: _116  and  _117
REMARK   49  A    between atoms: _116  and  _119
REMARK   50  A    between atoms: _119  and  _120
REMARK   51  A    between atoms: _123  and  _125
REMARK   52  A    between atoms: _125  and  _126
REMARK   53  A    between atoms: _125  and  _128
REMARK   54  A    between atoms: _128  and  _129
REMARK   55  A    between atoms: _134  and  _136
REMARK   56  A    between atoms: _136  and  _137
REMARK   57  A    between atoms: _136  and  _139
REMARK   58  A    between atoms: _139  and  _140
REMARK   59  A    between atoms: _142  and  _144
REMARK   60  A    between atoms: _144  and  _145
REMARK   61  A    between atoms: _148  and  _150
REMARK   62  A    between atoms: _150  and  _151
REMARK   63  A    between atoms: _154  and  _156
REMARK   64  A    between atoms: _156  and  _157
REMARK   65  A    between atoms: _159  and  _161
REMARK   66  A    between atoms: _161  and  _162
REMARK   67  A    between atoms: _161  and  _164
REMARK   68  A    between atoms: _164  and  _165
REMARK   69  A    between atoms: _168  and  _170
REMARK   70  A    between atoms: _170  and  _171
REMARK   71  A    between atoms: _173  and  _175
REMARK   72  A    between atoms: _175  and  _176
REMARK   73  A    between atoms: _175  and  _178
REMARK   74  A    between atoms: _178  and  _179
REMARK   75  A    between atoms: _184  and  _186
REMARK   76  A    between atoms: _186  and  _187
REMARK   77  A    between atoms: _190  and  _192
REMARK   78  A    between atoms: _192  and  _193
REMARK   79  A    between atoms: _192  and  _195
REMARK   80  A    between atoms: _195  and  _196
REMARK   81  A    between atoms: _196  and  _197
REMARK   82  A    between atoms: _202  and  _204
REMARK   83  A    between atoms: _204  and  _205
REMARK   84  A    between atoms: _204  and  _207
REMARK   85  A    between atoms: _207  and  _208
REMARK   86  A    between atoms: _211  and  _213
REMARK   87  A    between atoms: _213  and  _214
REMARK   88  A    between atoms: _213  and  _216
REMARK   89  A    between atoms: _216  and  _217
REMARK   90  A    between atoms: _220  and  _222
REMARK   91  A    between atoms: _222  and  _223
REMARK   92  A    between atoms: _225  and  _227
REMARK   93  A    between atoms: _227  and  _228
REMARK   94  A    between atoms: _231  and  _233
REMARK   95  A    between atoms: _233  and  _234
REMARK   96  A    between atoms: _233  and  _236
REMARK   97  A    between atoms: _236  and  _237
REMARK   98  A    between atoms: _239  and  _241
REMARK   99  A    between atoms: _241  and  _242
REMARK  100  A    between atoms: _241  and  _244
REMARK  101  A    between atoms: _244  and  _245
REMARK  102  A    between atoms: _250  and  _252
REMARK  103  A    between atoms: _252  and  _253
REMARK  104  A    between atoms: _252  and  _255
REMARK  105  A    between atoms: _255  and  _256
REMARK  106  A    between atoms: _258  and  _260
REMARK  107  A    between atoms: _260  and  _261
REMARK  108  A    between atoms: _264  and  _266
REMARK  109  A    between atoms: _266  and  _267
REMARK  110  A    between atoms: _270  and  _272
REMARK  111  A    between atoms: _272  and  _273
REMARK  112  A    between atoms: _272  and  _275
REMARK  113  A    between atoms: _275  and  _276
REMARK  114  A    between atoms: _276  and  _277
REMARK  115  A    between atoms: _277  and  _278
REMARK  116  A    between atoms: _287  and  _289
REMARK  117  A    between atoms: _289  and  _290
REMARK  118  A    between atoms: _289  and  _292
REMARK  119  A    between atoms: _292  and  _293
REMARK  120  A    between atoms: _298  and  _299
REMARK  121  A    between atoms: _301  and  _303
REMARK  122  A    between atoms: _303  and  _304
REMARK  123  A    between atoms: _303  and  _306
REMARK  124  A    between atoms: _306  and  _307
REMARK  125  A    between atoms: _312  and  _314
REMARK  126  A    between atoms: _314  and  _315
REMARK  127  A    between atoms: _314  and  _317
REMARK  128  A    between atoms: _317  and  _318
REMARK  129  A    between atoms: _318  and  _319
REMARK  130  A    between atoms: _325  and  _326
REMARK  131  A    between atoms: _331  and  _333
REMARK  132  A    between atoms: _333  and  _334
REMARK  133  A    between atoms: _333  and  _336
REMARK  134  A    between atoms: _336  and  _337
REMARK  135  A    between atoms: _342  and  _344
REMARK  136  A    between atoms: _344  and  _345
REMARK  137  A    between atoms: _344  and  _347
REMARK  138  A    between atoms: _347  and  _348
REMARK  139  A    between atoms: _348  and  _349
REMARK  140  A    between atoms: _352  and  _354
REMARK  141  A    between atoms: _354  and  _355
REMARK  142  A    between atoms: _354  and  _357
REMARK  143  A    between atoms: _357  and  _358
REMARK  144  A    between atoms: _360  and  _362
REMARK  145  A    between atoms: _362  and  _363
REMARK  146  A    between atoms: _362  and  _365
REMARK  147  A    between atoms: _365  and  _366
REMARK  148  A    between atoms: _369  and  _371
REMARK  149  A    between atoms: _371  and  _372
REMARK  150  A    between atoms: _371  and  _374
REMARK  151  A    between atoms: _374  and  _375
REMARK  152  A    between atoms: _377  and  _379
REMARK  153  A    between atoms: _379  and  _380
REMARK  154  A    between atoms: _379  and  _382
REMARK  155  A    between atoms: _382  and  _383
REMARK  156  A    between atoms: _386  and  _388
REMARK  157  A    between atoms: _388  and  _389
REMARK  158  A    between atoms: _388  and  _391
REMARK  159  A    between atoms: _391  and  _392
REMARK  160  A    between atoms: _395  and  _397
REMARK  161  A    between atoms: _397  and  _398
REMARK  162  A    between atoms: _397  and  _400
REMARK  163  A    between atoms: _400  and  _401
REMARK  164  A    between atoms: _401  and  _402
REMARK  165  A    between atoms: _407  and  _409
REMARK  166  A    between atoms: _409  and  _410
REMARK  167  A    between atoms: _409  and  _412
REMARK  168  A    between atoms: _412  and  _413
REMARK  169  A    between atoms: _419  and  _421
REMARK  170  A    between atoms: _421  and  _422
REMARK  171  A    between atoms: _421  and  _424
REMARK  172  A    between atoms: _426  and  _428
REMARK  173  A    between atoms: _428  and  _429
REMARK  174  A    between atoms: _432  and  _434
REMARK  175  A    between atoms: _434  and  _435
REMARK  176  A    between atoms: _437  and  _439
REMARK  177  A    between atoms: _439  and  _440
REMARK  178  A    between atoms: _442  and  _444
REMARK  179  A    between atoms: _444  and  _445
REMARK  180  A    between atoms: _444  and  _447
REMARK  181  A    between atoms: _447  and  _448
REMARK  182  A    between atoms: _451  and  _453
REMARK  183  A    between atoms: _453  and  _454
REMARK  184  A    between atoms: _456  and  _458
REMARK  185  A    between atoms: _458  and  _459
REMARK  186  A    between atoms: _458  and  _461
REMARK  187  A    between atoms: _461  and  _462
REMARK  188  A    between atoms: _468  and  _470
REMARK  189  A    between atoms: _470  and  _471
REMARK  190  A    between atoms: _470  and  _473
REMARK  191  A    between atoms: _476  and  _478
REMARK  192  A    between atoms: _478  and  _479
REMARK  193  A    between atoms: _478  and  _481
REMARK  194  A    between atoms: _481  and  _482
REMARK  195  A    between atoms: _485  and  _487
REMARK  196  A    between atoms: _487  and  _488
REMARK  197  A    between atoms: _490  and  _492
REMARK  198  A    between atoms: _492  and  _493
REMARK  199  A    between atoms: _492  and  _495
REMARK  200  A    between atoms: _495  and  _496
REMARK  201  A    between atoms: _496  and  _497
REMARK  202  A    between atoms: _497  and  MG_734
REMARK  203  A    between atoms: _499  and  _501
REMARK  204  A    between atoms: _501  and  _502
REMARK  205  A    between atoms: _504  and  _506
REMARK  206  A    between atoms: _506  and  _507
REMARK  207  A    between atoms: _506  and  _509
REMARK  208  A    between atoms: _509  and  _510
REMARK  209  A    between atoms: _512  and  _514
REMARK  210  A    between atoms: _514  and  _515
REMARK  211  A    between atoms: _518  and  _520
REMARK  212  A    between atoms: _520  and  _521
REMARK  213  A    between atoms: _520  and  _523
REMARK  214  A    between atoms: _523  and  _524
REMARK  215  A    between atoms: _529  and  _531
REMARK  216  A    between atoms: _531  and  _532
REMARK  217  A    between atoms: _531  and  _534
REMARK  218  A    between atoms: _534  and  _535
REMARK  219  A    between atoms: _540  and  _541
REMARK  220  A    between atoms: _543  and  _545
REMARK  221  A    between atoms: _545  and  _546
REMARK  222  A    between atoms: _545  and  _548
REMARK  223  A    between atoms: _548  and  _549
REMARK  224  A    between atoms: _552  and  _554
REMARK  225  A    between atoms: _554  and  _555
REMARK  226  A    between atoms: _554  and  _557
REMARK  227  A    between atoms: _557  and  _558
REMARK  228  A    between atoms: _558  and  _559
REMARK  229  A    between atoms: _561  and  _563
REMARK  230  A    between atoms: _563  and  _564
REMARK  231  A    between atoms: _563  and  _566
REMARK  232  A    between atoms: _566  and  _567
REMARK  233  A    between atoms: _572  and  _574
REMARK  234  A    between atoms: _574  and  _575
REMARK  235  A    between atoms: _574  and  _577
REMARK  236  A    between atoms: _577  and  _578
REMARK  237  A    between atoms: _583  and  _585
REMARK  238  A    between atoms: _585  and  _586
REMARK  239  A    between atoms: _588  and  _590
REMARK  240  A    between atoms: _590  and  _591
REMARK  241  A    between atoms: _590  and  _593
REMARK  242  A    between atoms: _591  and  _592
REMARK  243  A    between atoms: _591  and  _597
REMARK  244  A    between atoms: _592  and  MG_734
REMARK  245  A    between atoms: _593  and  _594
REMARK  246  A    between atoms: _597  and  _599
REMARK  247  A    between atoms: _599  and  _600
REMARK  248  A    between atoms: _599  and  _602
REMARK  249  A    between atoms: _602  and  _603
REMARK  250  A    between atoms: _608  and  _609
REMARK  251  A    between atoms: _611  and  _613
REMARK  252  A    between atoms: _613  and  _614
REMARK  253  A    between atoms: _616  and  _618
REMARK  254  A    between atoms: _618  and  _619
REMARK  255  A    between atoms: _622  and  _624
REMARK  256  A    between atoms: _624  and  _625
REMARK  257  A    between atoms: _624  and  _627
REMARK  258  A    between atoms: _627  and  _628
REMARK  259  A    between atoms: _631  and  _633
REMARK  260  A    between atoms: _633  and  _634
REMARK  261  A    between atoms: _633  and  _636
REMARK  262  A    between atoms: _636  and  _637
REMARK  263  A    between atoms: _637  and  _638
REMARK  264  A    between atoms: _638  and  _639
REMARK  265  A    between atoms: _648  and  _650
REMARK  266  A    between atoms: _650  and  _651
REMARK  267  A    between atoms: _650  and  _653
REMARK  268  A    between atoms: _653  and  _654
REMARK  269  A    between atoms: _664  and  _666
REMARK  270  A    between atoms: _666  and  _667
REMARK  271  A    between atoms: _666  and  _669
REMARK  272  A    between atoms: _669  and  _670
REMARK  273  A    between atoms: _676  and  _678
REMARK  274  A    between atoms: _678  and  _679
REMARK  275  A    between atoms: _681  and  _683
REMARK  276  A    between atoms: _683  and  _684
REMARK  277  A    between atoms: _683  and  _686
REMARK  278  A    between atoms: _686  and  _687
REMARK  279  A    between atoms: _690  and  _692
REMARK  280  A    between atoms: _692  and  _693
REMARK  281  A    between atoms: _692  and  _695
REMARK  282  A    between atoms: _698  and  _700
REMARK  283  A    between atoms: _700  and  _701
REMARK  284  A    between atoms: _700  and  _703
REMARK  285  A    between atoms: _703  and  _704
REMARK  286  A    between atoms: _710  and  _712
REMARK  287  A    between atoms: _712  and  _713
REMARK  288  A    between atoms: _712  and  _715
REMARK  289  A    between atoms: _715  and  _716
REMARK  290  A    between atoms: _719  and  _721
REMARK  291  A    between atoms: _721  and  _722
REMARK  292  A    between atoms: _721  and  _724
REMARK  293  A    between atoms: _728  and  _729
REMARK                            x       y       z     vdW  Elec       q    Type
REMARK                         _______ _______ _______ _____ _____    ______ ____
ROOT
ATOM      1  O   HOH     1      78.410  53.170 159.574  0.00  0.00    +0.000 OA
ENDROOT
TORSDOF 0
REMARK  Name = ../refined-set-2016/3f6e/3f6e_pocket.pdb
REMARK  293 active torsions:
REMARK  status: ('A' for Active; 'I' for Inactive)
REMARK    1  A    between atoms: _1  and  _3
REMARK    2  A    between atoms: _3  and  _4
REMARK    3  A    between atoms: _3  and  _6
REMARK    4  A    between atoms: _6  and  _7
REMARK    5  A    between atoms: _13  and  _14
REMARK    6  A    between atoms: _19  and  _21
REMARK    7  A    between atoms: _21  and  _22
REMARK    8  A    between atoms: _24  and  _26
REMARK    9  A    between atoms: _26  and  _27
REMARK   10  A    between atoms: _26  and  _29
REMARK   11  A    between atoms: _29  and  _30
REMARK   12  A    between atoms: _32  and  _34
REMARK   13  A    between atoms: _34  and  _35
REMARK   14  A    between atoms: _34  and  _37
REMARK   15  A    between atoms: _37  and  _38
REMARK   16  A    between atoms: _43  and  _45
REMARK   17  A    between atoms: _45  and  _46
REMARK   18  A    between atoms: _45  and  _48
REMARK   19  A    between atoms: _48  and  _49
REMARK   20  A    between atoms: _49  and  _50
REMARK   21  A    between atoms: _53  and  _55
REMARK   22  A    between atoms: _55  and  _56
REMARK   23  A    between atoms: _55  and  _58
REMARK   24  A    between atoms: _58  and  _59
REMARK   25  A    between atoms: _62  and  _64
REMARK   26  A    between atoms: _64  and  _65
REMARK   27  A    between atoms: _64  and  _67
REMARK   28  A    between atoms: _67  and  _68
REMARK   29  A    between atoms: _71  and  _73
REMARK   30  A    between atoms: _73  and  _74
REMARK   31  A    between atoms: _77  and  _79
REMARK   32  A    between atoms: _79  and  _80
REMARK   33  A    between atoms: _79  and  _82
REMARK   34  A    between atoms: _82  and  _83
REMARK   35  A    between atoms: _86  and  _88
REMARK   36  A    between atoms: _88  and  _89
REMARK   37  A    between atoms: _88  and  _91
REMARK   38  A    between atoms: _91  and  _92
REMARK   39  A    between atoms: _92  and  _93
REMARK   40  A    between atoms: _98  and  _100
REMARK   41  A    between atoms: _100  and  _101
REMARK   42  A    between atoms: _100  and  _103
REMARK   43  A    between atoms: _103  and  _104
REMARK   44  A    between atoms: _104  and  _105
REMARK   45  A    between atoms: _108  and  _110
REMARK   46  A    between atoms: _110  and  _111
REMARK   47  A    between atoms: _114  and  _116
REMARK   48  A    between atoms: _116  and  _117
REMARK   49  A    between atoms: _116  and  _119
REMARK   50  A    between atoms: _119  and  _120
REMARK   51  A    between atoms: _123  and  _125
REMARK   52  A    between atoms: _125  and  _126
REMARK   53  A    between atoms: _125  and  _128
REMARK   54  A    between atoms: _128  and  _129
REMARK   55  A    between atoms: _134  and  _136
REMARK   56  A    between atoms: _136  and  _137
REMARK   57  A    between atoms: _136  and  _139
REMARK   58  A    between atoms: _139  and  _140
REMARK   59  A    between atoms: _142  and  _144
REMARK   60  A    between atoms: _144  and  _145
REMARK   61  A    between atoms: _148  and  _150
REMARK   62  A    between atoms: _150  and  _151
REMARK   63  A    between atoms: _154  and  _156
REMARK   64  A    between atoms: _156  and  _157
REMARK   65  A    between atoms: _159  and  _161
REMARK   66  A    between atoms: _161  and  _162
REMARK   67  A    between atoms: _161  and  _164
REMARK   68  A    between atoms: _164  and  _165
REMARK   69  A    between atoms: _168  and  _170
REMARK   70  A    between atoms: _170  and  _171
REMARK   71  A    between atoms: _173  and  _175
REMARK   72  A    between atoms: _175  and  _176
REMARK   73  A    between atoms: _175  and  _178
REMARK   74  A    between atoms: _178  and  _179
REMARK   75  A    between atoms: _184  and  _186
REMARK   76  A    between atoms: _186  and  _187
REMARK   77  A    between atoms: _190  and  _192
REMARK   78  A    between atoms: _192  and  _193
REMARK   79  A    between atoms: _192  and  _195
REMARK   80  A    between atoms: _195  and  _196
REMARK   81  A    between atoms: _196  and  _197
REMARK   82  A    between atoms: _202  and  _204
REMARK   83  A    between atoms: _204  and  _205
REMARK   84  A    between atoms: _204  and  _207
REMARK   85  A    between atoms: _207  and  _208
REMARK   86  A    between atoms: _211  and  _213
REMARK   87  A    between atoms: _213  and  _214
REMARK   88  A    between atoms: _213  and  _216
REMARK   89  A    between atoms: _216  and  _217
REMARK   90  A    between atoms: _220  and  _222
REMARK   91  A    between atoms: _222  and  _223
REMARK   92  A    between atoms: _225  and  _227
REMARK   93  A    between atoms: _227  and  _228
REMARK   94  A    between atoms: _231  and  _233
REMARK   95  A    between atoms: _233  and  _234
REMARK   96  A    between atoms: _233  and  _236
REMARK   97  A    between atoms: _236  and  _237
REMARK   98  A    between atoms: _239  and  _241
REMARK   99  A    between atoms: _241  and  _242
REMARK  100  A    between atoms: _241  and  _244
REMARK  101  A    between atoms: _244  and  _245
REMARK  102  A    between atoms: _250  and  _252
REMARK  103  A    between atoms: _252  and  _253
REMARK  104  A    between atoms: _252  and  _255
REMARK  105  A    between atoms: _255  and  _256
REMARK  106  A    between atoms: _258  and  _260
REMARK  107  A    between atoms: _260  and  _261
REMARK  108  A    between atoms: _264  and  _266
REMARK  109  A    between atoms: _266  and  _267
REMARK  110  A    between atoms: _270  and  _272
REMARK  111  A    between atoms: _272  and  _273
REMARK  112  A    between atoms: _272  and  _275
REMARK  113  A    between atoms: _275  and  _276
REMARK  114  A    between atoms: _276  and  _277
REMARK  115  A    between atoms: _277  and  _278
REMARK  116  A    between atoms: _287  and  _289
REMARK  117  A    between atoms: _289  and  _290
REMARK  118  A    between atoms: _289  and  _292
REMARK  119  A    between atoms: _292  and  _293
REMARK  120  A    between atoms: _298  and  _299
REMARK  121  A    between atoms: _301  and  _303
REMARK  122  A    between atoms: _303  and  _304
REMARK  123  A    between atoms: _303  and  _306
REMARK  124  A    between atoms: _306  and  _307
REMARK  125  A    between atoms: _312  and  _314
REMARK  126  A    between atoms: _314  and  _315
REMARK  127  A    between atoms: _314  and  _317
REMARK  128  A    between atoms: _317  and  _318
REMARK  129  A    between atoms: _318  and  _319
REMARK  130  A    between atoms: _325  and  _326
REMARK  131  A    between atoms: _331  and  _333
REMARK  132  A    between atoms: _333  and  _334
REMARK  133  A    between atoms: _333  and  _336
REMARK  134  A    between atoms: _336  and  _337
REMARK  135  A    between atoms: _342  and  _344
REMARK  136  A    between atoms: _344  and  _345
REMARK  137  A    between atoms: _344  and  _347
REMARK  138  A    between atoms: _347  and  _348
REMARK  139  A    between atoms: _348  and  _349
REMARK  140  A    between atoms: _352  and  _354
REMARK  141  A    between atoms: _354  and  _355
REMARK  142  A    between atoms: _354  and  _357
REMARK  143  A    between atoms: _357  and  _358
REMARK  144  A    between atoms: _360  and  _362
REMARK  145  A    between atoms: _362  and  _363
REMARK  146  A    between atoms: _362  and  _365
REMARK  147  A    between atoms: _365  and  _366
REMARK  148  A    between atoms: _369  and  _371
REMARK  149  A    between atoms: _371  and  _372
REMARK  150  A    between atoms: _371  and  _374
REMARK  151  A    between atoms: _374  and  _375
REMARK  152  A    between atoms: _377  and  _379
REMARK  153  A    between atoms: _379  and  _380
REMARK  154  A    between atoms: _379  and  _382
REMARK  155  A    between atoms: _382  and  _383
REMARK  156  A    between atoms: _386  and  _388
REMARK  157  A    between atoms: _388  and  _389
REMARK  158  A    between atoms: _388  and  _391
REMARK  159  A    between atoms: _391  and  _392
REMARK  160  A    between atoms: _395  and  _397
REMARK  161  A    between atoms: _397  and  _398
REMARK  162  A    between atoms: _397  and  _400
REMARK  163  A    between atoms: _400  and  _401
REMARK  164  A    between atoms: _401  and  _402
REMARK  165  A    between atoms: _407  and  _409
REMARK  166  A    between atoms: _409  and  _410
REMARK  167  A    between atoms: _409  and  _412
REMARK  168  A    between atoms: _412  and  _413
REMARK  169  A    between atoms: _419  and  _421
REMARK  170  A    between atoms: _421  and  _422
REMARK  171  A    between atoms: _421  and  _424
REMARK  172  A    between atoms: _426  and  _428
REMARK  173  A    between atoms: _428  and  _429
REMARK  174  A    between atoms: _432  and  _434
REMARK  175  A    between atoms: _434  and  _435
REMARK  176  A    between atoms: _437  and  _439
REMARK  177  A    between atoms: _439  and  _440
REMARK  178  A    between atoms: _442  and  _444
REMARK  179  A    between atoms: _444  and  _445
REMARK  180  A    between atoms: _444  and  _447
REMARK  181  A    between atoms: _447  and  _448
REMARK  182  A    between atoms: _451  and  _453
REMARK  183  A    between atoms: _453  and  _454
REMARK  184  A    between atoms: _456  and  _458
REMARK  185  A    between atoms: _458  and  _459
REMARK  186  A    between atoms: _458  and  _461
REMARK  187  A    between atoms: _461  and  _462
REMARK  188  A    between atoms: _468  and  _470
REMARK  189  A    between atoms: _470  and  _471
REMARK  190  A    between atoms: _470  and  _473
REMARK  191  A    between atoms: _476  and  _478
REMARK  192  A    between atoms: _478  and  _479
REMARK  193  A    between atoms: _478  and  _481
REMARK  194  A    between atoms: _481  and  _482
REMARK  195  A    between atoms: _485  and  _487
REMARK  196  A    between atoms: _487  and  _488
REMARK  197  A    between atoms: _490  and  _492
REMARK  198  A    between atoms: _492  and  _493
REMARK  199  A    between atoms: _492  and  _495
REMARK  200  A    between atoms: _495  and  _496
REMARK  201  A    between atoms: _496  and  _497
REMARK  202  A    between atoms: _497  and  MG_734
REMARK  203  A    between atoms: _499  and  _501
REMARK  204  A    between atoms: _501  and  _502
REMARK  205  A    between atoms: _504  and  _506
REMARK  206  A    between atoms: _506  and  _507
REMARK  207  A    between atoms: _506  and  _509
REMARK  208  A    between atoms: _509  and  _510
REMARK  209  A    between atoms: _512  and  _514
REMARK  210  A    between atoms: _514  and  _515
REMARK  211  A    between atoms: _518  and  _520
REMARK  212  A    between atoms: _520  and  _521
REMARK  213  A    between atoms: _520  and  _523
REMARK  214  A    between atoms: _523  and  _524
REMARK  215  A    between atoms: _529  and  _531
REMARK  216  A    between atoms: _531  and  _532
REMARK  217  A    between atoms: _531  and  _534
REMARK  218  A    between atoms: _534  and  _535
REMARK  219  A    between atoms: _540  and  _541
REMARK  220  A    between atoms: _543  and  _545
REMARK  221  A    between atoms: _545  and  _546
REMARK  222  A    between atoms: _545  and  _548
REMARK  223  A    between atoms: _548  and  _549
REMARK  224  A    between atoms: _552  and  _554
REMARK  225  A    between atoms: _554  and  _555
REMARK  226  A    between atoms: _554  and  _557
REMARK  227  A    between atoms: _557  and  _558
REMARK  228  A    between atoms: _558  and  _559
REMARK  229  A    between atoms: _561  and  _563
REMARK  230  A    between atoms: _563  and  _564
REMARK  231  A    between atoms: _563  and  _566
REMARK  232  A    between atoms: _566  and  _567
REMARK  233  A    between atoms: _572  and  _574
REMARK  234  A    between atoms: _574  and  _575
REMARK  235  A    between atoms: _574  and  _577
REMARK  236  A    between atoms: _577  and  _578
REMARK  237  A    between atoms: _583  and  _585
REMARK  238  A    between atoms: _585  and  _586
REMARK  239  A    between atoms: _588  and  _590
REMARK  240  A    between atoms: _590  and  _591
REMARK  241  A    between atoms: _590  and  _593
REMARK  242  A    between atoms: _591  and  _592
REMARK  243  A    between atoms: _591  and  _597
REMARK  244  A    between atoms: _592  and  MG_734
REMARK  245  A    between atoms: _593  and  _594
REMARK  246  A    between atoms: _597  and  _599
REMARK  247  A    between atoms: _599  and  _600
REMARK  248  A    between atoms: _599  and  _602
REMARK  249  A    between atoms: _602  and  _603
REMARK  250  A    between atoms: _608  and  _609
REMARK  251  A    between atoms: _611  and  _613
REMARK  252  A    between atoms: _613  and  _614
REMARK  253  A    between atoms: _616  and  _618
REMARK  254  A    between atoms: _618  and  _619
REMARK  255  A    between atoms: _622  and  _624
REMARK  256  A    between atoms: _624  and  _625
REMARK  257  A    between atoms: _624  and  _627
REMARK  258  A    between atoms: _627  and  _628
REMARK  259  A    between atoms: _631  and  _633
REMARK  260  A    between atoms: _633  and  _634
REMARK  261  A    between atoms: _633  and  _636
REMARK  262  A    between atoms: _636  and  _637
REMARK  263  A    between atoms: _637  and  _638
REMARK  264  A    between atoms: _638  and  _639
REMARK  265  A    between atoms: _648  and  _650
REMARK  266  A    between atoms: _650  and  _651
REMARK  267  A    between atoms: _650  and  _653
REMARK  268  A    between atoms: _653  and  _654
REMARK  269  A    between atoms: _664  and  _666
REMARK  270  A    between atoms: _666  and  _667
REMARK  271  A    between atoms: _666  and  _669
REMARK  272  A    between atoms: _669  and  _670
REMARK  273  A    between atoms: _676  and  _678
REMARK  274  A    between atoms: _678  and  _679
REMARK  275  A    between atoms: _681  and  _683
REMARK  276  A    between atoms: _683  and  _684
REMARK  277  A    between atoms: _683  and  _686
REMARK  278  A    between atoms: _686  and  _687
REMARK  279  A    between atoms: _690  and  _692
REMARK  280  A    between atoms: _692  and  _693
REMARK  281  A    between atoms: _692  and  _695
REMARK  282  A    between atoms: _698  and  _700
REMARK  283  A    between atoms: _700  and  _701
REMARK  284  A    between atoms: _700  and  _703
REMARK  285  A    between atoms: _703  and  _704
REMARK  286  A    between atoms: _710  and  _712
REMARK  287  A    between atoms: _712  and  _713
REMARK  288  A    between atoms: _712  and  _715
REMARK  289  A    between atoms: _715  and  _716
REMARK  290  A    between atoms: _719  and  _721
REMARK  291  A    between atoms: _721  and  _722
REMARK  292  A    between atoms: _721  and  _724
REMARK  293  A    between atoms: _728  and  _729
REMARK                            x       y       z     vdW  Elec       q    Type
REMARK                         _______ _______ _______ _____ _____    ______ ____
ROOT
ATOM      1  O   HOH     1      64.785  61.397 161.692  0.00  0.00    +0.000 OA
ENDROOT
TORSDOF 0
REMARK  Name = ../refined-set-2016/3f6e/3f6e_pocket.pdb
REMARK  293 active torsions:
REMARK  status: ('A' for Active; 'I' for Inactive)
REMARK    1  A    between atoms: _1  and  _3
REMARK    2  A    between atoms: _3  and  _4
REMARK    3  A    between atoms: _3  and  _6
REMARK    4  A    between atoms: _6  and  _7
REMARK    5  A    between atoms: _13  and  _14
REMARK    6  A    between atoms: _19  and  _21
REMARK    7  A    between atoms: _21  and  _22
REMARK    8  A    between atoms: _24  and  _26
REMARK    9  A    between atoms: _26  and  _27
REMARK   10  A    between atoms: _26  and  _29
REMARK   11  A    between atoms: _29  and  _30
REMARK   12  A    between atoms: _32  and  _34
REMARK   13  A    between atoms: _34  and  _35
REMARK   14  A    between atoms: _34  and  _37
REMARK   15  A    between atoms: _37  and  _38
REMARK   16  A    between atoms: _43  and  _45
REMARK   17  A    between atoms: _45  and  _46
REMARK   18  A    between atoms: _45  and  _48
REMARK   19  A    between atoms: _48  and  _49
REMARK   20  A    between atoms: _49  and  _50
REMARK   21  A    between atoms: _53  and  _55
REMARK   22  A    between atoms: _55  and  _56
REMARK   23  A    between atoms: _55  and  _58
REMARK   24  A    between atoms: _58  and  _59
REMARK   25  A    between atoms: _62  and  _64
REMARK   26  A    between atoms: _64  and  _65
REMARK   27  A    between atoms: _64  and  _67
REMARK   28  A    between atoms: _67  and  _68
REMARK   29  A    between atoms: _71  and  _73
REMARK   30  A    between atoms: _73  and  _74
REMARK   31  A    between atoms: _77  and  _79
REMARK   32  A    between atoms: _79  and  _80
REMARK   33  A    between atoms: _79  and  _82
REMARK   34  A    between atoms: _82  and  _83
REMARK   35  A    between atoms: _86  and  _88
REMARK   36  A    between atoms: _88  and  _89
REMARK   37  A    between atoms: _88  and  _91
REMARK   38  A    between atoms: _91  and  _92
REMARK   39  A    between atoms: _92  and  _93
REMARK   40  A    between atoms: _98  and  _100
REMARK   41  A    between atoms: _100  and  _101
REMARK   42  A    between atoms: _100  and  _103
REMARK   43  A    between atoms: _103  and  _104
REMARK   44  A    between atoms: _104  and  _105
REMARK   45  A    between atoms: _108  and  _110
REMARK   46  A    between atoms: _110  and  _111
REMARK   47  A    between atoms: _114  and  _116
REMARK   48  A    between atoms: _116  and  _117
REMARK   49  A    between atoms: _116  and  _119
REMARK   50  A    between atoms: _119  and  _120
REMARK   51  A    between atoms: _123  and  _125
REMARK   52  A    between atoms: _125  and  _126
REMARK   53  A    between atoms: _125  and  _128
REMARK   54  A    between atoms: _128  and  _129
REMARK   55  A    between atoms: _134  and  _136
REMARK   56  A    between atoms: _136  and  _137
REMARK   57  A    between atoms: _136  and  _139
REMARK   58  A    between atoms: _139  and  _140
REMARK   59  A    between atoms: _142  and  _144
REMARK   60  A    between atoms: _144  and  _145
REMARK   61  A    between atoms: _148  and  _150
REMARK   62  A    between atoms: _150  and  _151
REMARK   63  A    between atoms: _154  and  _156
REMARK   64  A    between atoms: _156  and  _157
REMARK   65  A    between atoms: _159  and  _161
REMARK   66  A    between atoms: _161  and  _162
REMARK   67  A    between atoms: _161  and  _164
REMARK   68  A    between atoms: _164  and  _165
REMARK   69  A    between atoms: _168  and  _170
REMARK   70  A    between atoms: _170  and  _171
REMARK   71  A    between atoms: _173  and  _175
REMARK   72  A    between atoms: _175  and  _176
REMARK   73  A    between atoms: _175  and  _178
REMARK   74  A    between atoms: _178  and  _179
REMARK   75  A    between atoms: _184  and  _186
REMARK   76  A    between atoms: _186  and  _187
REMARK   77  A    between atoms: _190  and  _192
REMARK   78  A    between atoms: _192  and  _193
REMARK   79  A    between atoms: _192  and  _195
REMARK   80  A    between atoms: _195  and  _196
REMARK   81  A    between atoms: _196  and  _197
REMARK   82  A    between atoms: _202  and  _204
REMARK   83  A    between atoms: _204  and  _205
REMARK   84  A    between atoms: _204  and  _207
REMARK   85  A    between atoms: _207  and  _208
REMARK   86  A    between atoms: _211  and  _213
REMARK   87  A    between atoms: _213  and  _214
REMARK   88  A    between atoms: _213  and  _216
REMARK   89  A    between atoms: _216  and  _217
REMARK   90  A    between atoms: _220  and  _222
REMARK   91  A    between atoms: _222  and  _223
REMARK   92  A    between atoms: _225  and  _227
REMARK   93  A    between atoms: _227  and  _228
REMARK   94  A    between atoms: _231  and  _233
REMARK   95  A    between atoms: _233  and  _234
REMARK   96  A    between atoms: _233  and  _236
REMARK   97  A    between atoms: _236  and  _237
REMARK   98  A    between atoms: _239  and  _241
REMARK   99  A    between atoms: _241  and  _242
REMARK  100  A    between atoms: _241  and  _244
REMARK  101  A    between atoms: _244  and  _245
REMARK  102  A    between atoms: _250  and  _252
REMARK  103  A    between atoms: _252  and  _253
REMARK  104  A    between atoms: _252  and  _255
REMARK  105  A    between atoms: _255  and  _256
REMARK  106  A    between atoms: _258  and  _260
REMARK  107  A    between atoms: _260  and  _261
REMARK  108  A    between atoms: _264  and  _266
REMARK  109  A    between atoms: _266  and  _267
REMARK  110  A    between atoms: _270  and  _272
REMARK  111  A    between atoms: _272  and  _273
REMARK  112  A    between atoms: _272  and  _275
REMARK  113  A    between atoms: _275  and  _276
REMARK  114  A    between atoms: _276  and  _277
REMARK  115  A    between atoms: _277  and  _278
REMARK  116  A    between atoms: _287  and  _289
REMARK  117  A    between atoms: _289  and  _290
REMARK  118  A    between atoms: _289  and  _292
REMARK  119  A    between atoms: _292  and  _293
REMARK  120  A    between atoms: _298  and  _299
REMARK  121  A    between atoms: _301  and  _303
REMARK  122  A    between atoms: _303  and  _304
REMARK  123  A    between atoms: _303  and  _306
REMARK  124  A    between atoms: _306  and  _307
REMARK  125  A    between atoms: _312  and  _314
REMARK  126  A    between atoms: _314  and  _315
REMARK  127  A    between atoms: _314  and  _317
REMARK  128  A    between atoms: _317  and  _318
REMARK  129  A    between atoms: _318  and  _319
REMARK  130  A    between atoms: _325  and  _326
REMARK  131  A    between atoms: _331  and  _333
REMARK  132  A    between atoms: _333  and  _334
REMARK  133  A    between atoms: _333  and  _336
REMARK  134  A    between atoms: _336  and  _337
REMARK  135  A    between atoms: _342  and  _344
REMARK  136  A    between atoms: _344  and  _345
REMARK  137  A    between atoms: _344  and  _347
REMARK  138  A    between atoms: _347  and  _348
REMARK  139  A    between atoms: _348  and  _349
REMARK  140  A    between atoms: _352  and  _354
REMARK  141  A    between atoms: _354  and  _355
REMARK  142  A    between atoms: _354  and  _357
REMARK  143  A    between atoms: _357  and  _358
REMARK  144  A    between atoms: _360  and  _362
REMARK  145  A    between atoms: _362  and  _363
REMARK  146  A    between atoms: _362  and  _365
REMARK  147  A    between atoms: _365  and  _366
REMARK  148  A    between atoms: _369  and  _371
REMARK  149  A    between atoms: _371  and  _372
REMARK  150  A    between atoms: _371  and  _374
REMARK  151  A    between atoms: _374  and  _375
REMARK  152  A    between atoms: _377  and  _379
REMARK  153  A    between atoms: _379  and  _380
REMARK  154  A    between atoms: _379  and  _382
REMARK  155  A    between atoms: _382  and  _383
REMARK  156  A    between atoms: _386  and  _388
REMARK  157  A    between atoms: _388  and  _389
REMARK  158  A    between atoms: _388  and  _391
REMARK  159  A    between atoms: _391  and  _392
REMARK  160  A    between atoms: _395  and  _397
REMARK  161  A    between atoms: _397  and  _398
REMARK  162  A    between atoms: _397  and  _400
REMARK  163  A    between atoms: _400  and  _401
REMARK  164  A    between atoms: _401  and  _402
REMARK  165  A    between atoms: _407  and  _409
REMARK  166  A    between atoms: _409  and  _410
REMARK  167  A    between atoms: _409  and  _412
REMARK  168  A    between atoms: _412  and  _413
REMARK  169  A    between atoms: _419  and  _421
REMARK  170  A    between atoms: _421  and  _422
REMARK  171  A    between atoms: _421  and  _424
REMARK  172  A    between atoms: _426  and  _428
REMARK  173  A    between atoms: _428  and  _429
REMARK  174  A    between atoms: _432  and  _434
REMARK  175  A    between atoms: _434  and  _435
REMARK  176  A    between atoms: _437  and  _439
REMARK  177  A    between atoms: _439  and  _440
REMARK  178  A    between atoms: _442  and  _444
REMARK  179  A    between atoms: _444  and  _445
REMARK  180  A    between atoms: _444  and  _447
REMARK  181  A    between atoms: _447  and  _448
REMARK  182  A    between atoms: _451  and  _453
REMARK  183  A    between atoms: _453  and  _454
REMARK  184  A    between atoms: _456  and  _458
REMARK  185  A    between atoms: _458  and  _459
REMARK  186  A    between atoms: _458  and  _461
REMARK  187  A    between atoms: _461  and  _462
REMARK  188  A    between atoms: _468  and  _470
REMARK  189  A    between atoms: _470  and  _471
REMARK  190  A    between atoms: _470  and  _473
REMARK  191  A    between atoms: _476  and  _478
REMARK  192  A    between atoms: _478  and  _479
REMARK  193  A    between atoms: _478  and  _481
REMARK  194  A    between atoms: _481  and  _482
REMARK  195  A    between atoms: _485  and  _487
REMARK  196  A    between atoms: _487  and  _488
REMARK  197  A    between atoms: _490  and  _492
REMARK  198  A    between atoms: _492  and  _493
REMARK  199  A    between atoms: _492  and  _495
REMARK  200  A    between atoms: _495  and  _496
REMARK  201  A    between atoms: _496  and  _497
REMARK  202  A    between atoms: _497  and  MG_734
REMARK  203  A    between atoms: _499  and  _501
REMARK  204  A    between atoms: _501  and  _502
REMARK  205  A    between atoms: _504  and  _506
REMARK  206  A    between atoms: _506  and  _507
REMARK  207  A    between atoms: _506  and  _509
REMARK  208  A    between atoms: _509  and  _510
REMARK  209  A    between atoms: _512  and  _514
REMARK  210  A    between atoms: _514  and  _515
REMARK  211  A    between atoms: _518  and  _520
REMARK  212  A    between atoms: _520  and  _521
REMARK  213  A    between atoms: _520  and  _523
REMARK  214  A    between atoms: _523  and  _524
REMARK  215  A    between atoms: _529  and  _531
REMARK  216  A    between atoms: _531  and  _532
REMARK  217  A    between atoms: _531  and  _534
REMARK  218  A    between atoms: _534  and  _535
REMARK  219  A    between atoms: _540  and  _541
REMARK  220  A    between atoms: _543  and  _545
REMARK  221  A    between atoms: _545  and  _546
REMARK  222  A    between atoms: _545  and  _548
REMARK  223  A    between atoms: _548  and  _549
REMARK  224  A    between atoms: _552  and  _554
REMARK  225  A    between atoms: _554  and  _555
REMARK  226  A    between atoms: _554  and  _557
REMARK  227  A    between atoms: _557  and  _558
REMARK  228  A    between atoms: _558  and  _559
REMARK  229  A    between atoms: _561  and  _563
REMARK  230  A    between atoms: _563  and  _564
REMARK  231  A    between atoms: _563  and  _566
REMARK  232  A    between atoms: _566  and  _567
REMARK  233  A    between atoms: _572  and  _574
REMARK  234  A    between atoms: _574  and  _575
REMARK  235  A    between atoms: _574  and  _577
REMARK  236  A    between atoms: _577  and  _578
REMARK  237  A    between atoms: _583  and  _585
REMARK  238  A    between atoms: _585  and  _586
REMARK  239  A    between atoms: _588  and  _590
REMARK  240  A    between atoms: _590  and  _591
REMARK  241  A    between atoms: _590  and  _593
REMARK  242  A    between atoms: _591  and  _592
REMARK  243  A    between atoms: _591  and  _597
REMARK  244  A    between atoms: _592  and  MG_734
REMARK  245  A    between atoms: _593  and  _594
REMARK  246  A    between atoms: _597  and  _599
REMARK  247  A    between atoms: _599  and  _600
REMARK  248  A    between atoms: _599  and  _602
REMARK  249  A    between atoms: _602  and  _603
REMARK  250  A    between atoms: _608  and  _609
REMARK  251  A    between atoms: _611  and  _613
REMARK  252  A    between atoms: _613  and  _614
REMARK  253  A    between atoms: _616  and  _618
REMARK  254  A    between atoms: _618  and  _619
REMARK  255  A    between atoms: _622  and  _624
REMARK  256  A    between atoms: _624  and  _625
REMARK  257  A    between atoms: _624  and  _627
REMARK  258  A    between atoms: _627  and  _628
REMARK  259  A    between atoms: _631  and  _633
REMARK  260  A    between atoms: _633  and  _634
REMARK  261  A    between atoms: _633  and  _636
REMARK  262  A    between atoms: _636  and  _637
REMARK  263  A    between atoms: _637  and  _638
REMARK  264  A    between atoms: _638  and  _639
REMARK  265  A    between atoms: _648  and  _650
REMARK  266  A    between atoms: _650  and  _651
REMARK  267  A    between atoms: _650  and  _653
REMARK  268  A    between atoms: _653  and  _654
REMARK  269  A    between atoms: _664  and  _666
REMARK  270  A    between atoms: _666  and  _667
REMARK  271  A    between atoms: _666  and  _669
REMARK  272  A    between atoms: _669  and  _670
REMARK  273  A    between atoms: _676  and  _678
REMARK  274  A    between atoms: _678  and  _679
REMARK  275  A    between atoms: _681  and  _683
REMARK  276  A    between atoms: _683  and  _684
REMARK  277  A    between atoms: _683  and  _686
REMARK  278  A    between atoms: _686  and  _687
REMARK  279  A    between atoms: _690  and  _692
REMARK  280  A    between atoms: _692  and  _693
REMARK  281  A    between atoms: _692  and  _695
REMARK  282  A    between atoms: _698  and  _700
REMARK  283  A    between atoms: _700  and  _701
REMARK  284  A    between atoms: _700  and  _703
REMARK  285  A    between atoms: _703  and  _704
REMARK  286  A    between atoms: _710  and  _712
REMARK  287  A    between atoms: _712  and  _713
REMARK  288  A    between atoms: _712  and  _715
REMARK  289  A    between atoms: _715  and  _716
REMARK  290  A    between atoms: _719  and  _721
REMARK  291  A    between atoms: _721  and  _722
REMARK  292  A    between atoms: _721  and  _724
REMARK  293  A    between atoms: _728  and  _729
REMARK                            x       y       z     vdW  Elec       q    Type
REMARK                         _______ _______ _______ _____ _____    ______ ____
ROOT
ATOM      1  O   HOH     1      61.622  58.325 173.154  0.00  0.00    +0.000 OA
ENDROOT
TORSDOF 0
REMARK  Name = ../refined-set-2016/3f6e/3f6e_pocket.pdb
REMARK  293 active torsions:
REMARK  status: ('A' for Active; 'I' for Inactive)
REMARK    1  A    between atoms: _1  and  _3
REMARK    2  A    between atoms: _3  and  _4
REMARK    3  A    between atoms: _3  and  _6
REMARK    4  A    between atoms: _6  and  _7
REMARK    5  A    between atoms: _13  and  _14
REMARK    6  A    between atoms: _19  and  _21
REMARK    7  A    between atoms: _21  and  _22
REMARK    8  A    between atoms: _24  and  _26
REMARK    9  A    between atoms: _26  and  _27
REMARK   10  A    between atoms: _26  and  _29
REMARK   11  A    between atoms: _29  and  _30
REMARK   12  A    between atoms: _32  and  _34
REMARK   13  A    between atoms: _34  and  _35
REMARK   14  A    between atoms: _34  and  _37
REMARK   15  A    between atoms: _37  and  _38
REMARK   16  A    between atoms: _43  and  _45
REMARK   17  A    between atoms: _45  and  _46
REMARK   18  A    between atoms: _45  and  _48
REMARK   19  A    between atoms: _48  and  _49
REMARK   20  A    between atoms: _49  and  _50
REMARK   21  A    between atoms: _53  and  _55
REMARK   22  A    between atoms: _55  and  _56
REMARK   23  A    between atoms: _55  and  _58
REMARK   24  A    between atoms: _58  and  _59
REMARK   25  A    between atoms: _62  and  _64
REMARK   26  A    between atoms: _64  and  _65
REMARK   27  A    between atoms: _64  and  _67
REMARK   28  A    between atoms: _67  and  _68
REMARK   29  A    between atoms: _71  and  _73
REMARK   30  A    between atoms: _73  and  _74
REMARK   31  A    between atoms: _77  and  _79
REMARK   32  A    between atoms: _79  and  _80
REMARK   33  A    between atoms: _79  and  _82
REMARK   34  A    between atoms: _82  and  _83
REMARK   35  A    between atoms: _86  and  _88
REMARK   36  A    between atoms: _88  and  _89
REMARK   37  A    between atoms: _88  and  _91
REMARK   38  A    between atoms: _91  and  _92
REMARK   39  A    between atoms: _92  and  _93
REMARK   40  A    between atoms: _98  and  _100
REMARK   41  A    between atoms: _100  and  _101
REMARK   42  A    between atoms: _100  and  _103
REMARK   43  A    between atoms: _103  and  _104
REMARK   44  A    between atoms: _104  and  _105
REMARK   45  A    between atoms: _108  and  _110
REMARK   46  A    between atoms: _110  and  _111
REMARK   47  A    between atoms: _114  and  _116
REMARK   48  A    between atoms: _116  and  _117
REMARK   49  A    between atoms: _116  and  _119
REMARK   50  A    between atoms: _119  and  _120
REMARK   51  A    between atoms: _123  and  _125
REMARK   52  A    between atoms: _125  and  _126
REMARK   53  A    between atoms: _125  and  _128
REMARK   54  A    between atoms: _128  and  _129
REMARK   55  A    between atoms: _134  and  _136
REMARK   56  A    between atoms: _136  and  _137
REMARK   57  A    between atoms: _136  and  _139
REMARK   58  A    between atoms: _139  and  _140
REMARK   59  A    between atoms: _142  and  _144
REMARK   60  A    between atoms: _144  and  _145
REMARK   61  A    between atoms: _148  and  _150
REMARK   62  A    between atoms: _150  and  _151
REMARK   63  A    between atoms: _154  and  _156
REMARK   64  A    between atoms: _156  and  _157
REMARK   65  A    between atoms: _159  and  _161
REMARK   66  A    between atoms: _161  and  _162
REMARK   67  A    between atoms: _161  and  _164
REMARK   68  A    between atoms: _164  and  _165
REMARK   69  A    between atoms: _168  and  _170
REMARK   70  A    between atoms: _170  and  _171
REMARK   71  A    between atoms: _173  and  _175
REMARK   72  A    between atoms: _175  and  _176
REMARK   73  A    between atoms: _175  and  _178
REMARK   74  A    between atoms: _178  and  _179
REMARK   75  A    between atoms: _184  and  _186
REMARK   76  A    between atoms: _186  and  _187
REMARK   77  A    between atoms: _190  and  _192
REMARK   78  A    between atoms: _192  and  _193
REMARK   79  A    between atoms: _192  and  _195
REMARK   80  A    between atoms: _195  and  _196
REMARK   81  A    between atoms: _196  and  _197
REMARK   82  A    between atoms: _202  and  _204
REMARK   83  A    between atoms: _204  and  _205
REMARK   84  A    between atoms: _204  and  _207
REMARK   85  A    between atoms: _207  and  _208
REMARK   86  A    between atoms: _211  and  _213
REMARK   87  A    between atoms: _213  and  _214
REMARK   88  A    between atoms: _213  and  _216
REMARK   89  A    between atoms: _216  and  _217
REMARK   90  A    between atoms: _220  and  _222
REMARK   91  A    between atoms: _222  and  _223
REMARK   92  A    between atoms: _225  and  _227
REMARK   93  A    between atoms: _227  and  _228
REMARK   94  A    between atoms: _231  and  _233
REMARK   95  A    between atoms: _233  and  _234
REMARK   96  A    between atoms: _233  and  _236
REMARK   97  A    between atoms: _236  and  _237
REMARK   98  A    between atoms: _239  and  _241
REMARK   99  A    between atoms: _241  and  _242
REMARK  100  A    between atoms: _241  and  _244
REMARK  101  A    between atoms: _244  and  _245
REMARK  102  A    between atoms: _250  and  _252
REMARK  103  A    between atoms: _252  and  _253
REMARK  104  A    between atoms: _252  and  _255
REMARK  105  A    between atoms: _255  and  _256
REMARK  106  A    between atoms: _258  and  _260
REMARK  107  A    between atoms: _260  and  _261
REMARK  108  A    between atoms: _264  and  _266
REMARK  109  A    between atoms: _266  and  _267
REMARK  110  A    between atoms: _270  and  _272
REMARK  111  A    between atoms: _272  and  _273
REMARK  112  A    between atoms: _272  and  _275
REMARK  113  A    between atoms: _275  and  _276
REMARK  114  A    between atoms: _276  and  _277
REMARK  115  A    between atoms: _277  and  _278
REMARK  116  A    between atoms: _287  and  _289
REMARK  117  A    between atoms: _289  and  _290
REMARK  118  A    between atoms: _289  and  _292
REMARK  119  A    between atoms: _292  and  _293
REMARK  120  A    between atoms: _298  and  _299
REMARK  121  A    between atoms: _301  and  _303
REMARK  122  A    between atoms: _303  and  _304
REMARK  123  A    between atoms: _303  and  _306
REMARK  124  A    between atoms: _306  and  _307
REMARK  125  A    between atoms: _312  and  _314
REMARK  126  A    between atoms: _314  and  _315
REMARK  127  A    between atoms: _314  and  _317
REMARK  128  A    between atoms: _317  and  _318
REMARK  129  A    between atoms: _318  and  _319
REMARK  130  A    between atoms: _325  and  _326
REMARK  131  A    between atoms: _331  and  _333
REMARK  132  A    between atoms: _333  and  _334
REMARK  133  A    between atoms: _333  and  _336
REMARK  134  A    between atoms: _336  and  _337
REMARK  135  A    between atoms: _342  and  _344
REMARK  136  A    between atoms: _344  and  _345
REMARK  137  A    between atoms: _344  and  _347
REMARK  138  A    between atoms: _347  and  _348
REMARK  139  A    between atoms: _348  and  _349
REMARK  140  A    between atoms: _352  and  _354
REMARK  141  A    between atoms: _354  and  _355
REMARK  142  A    between atoms: _354  and  _357
REMARK  143  A    between atoms: _357  and  _358
REMARK  144  A    between atoms: _360  and  _362
REMARK  145  A    between atoms: _362  and  _363
REMARK  146  A    between atoms: _362  and  _365
REMARK  147  A    between atoms: _365  and  _366
REMARK  148  A    between atoms: _369  and  _371
REMARK  149  A    between atoms: _371  and  _372
REMARK  150  A    between atoms: _371  and  _374
REMARK  151  A    between atoms: _374  and  _375
REMARK  152  A    between atoms: _377  and  _379
REMARK  153  A    between atoms: _379  and  _380
REMARK  154  A    between atoms: _379  and  _382
REMARK  155  A    between atoms: _382  and  _383
REMARK  156  A    between atoms: _386  and  _388
REMARK  157  A    between atoms: _388  and  _389
REMARK  158  A    between atoms: _388  and  _391
REMARK  159  A    between atoms: _391  and  _392
REMARK  160  A    between atoms: _395  and  _397
REMARK  161  A    between atoms: _397  and  _398
REMARK  162  A    between atoms: _397  and  _400
REMARK  163  A    between atoms: _400  and  _401
REMARK  164  A    between atoms: _401  and  _402
REMARK  165  A    between atoms: _407  and  _409
REMARK  166  A    between atoms: _409  and  _410
REMARK  167  A    between atoms: _409  and  _412
REMARK  168  A    between atoms: _412  and  _413
REMARK  169  A    between atoms: _419  and  _421
REMARK  170  A    between atoms: _421  and  _422
REMARK  171  A    between atoms: _421  and  _424
REMARK  172  A    between atoms: _426  and  _428
REMARK  173  A    between atoms: _428  and  _429
REMARK  174  A    between atoms: _432  and  _434
REMARK  175  A    between atoms: _434  and  _435
REMARK  176  A    between atoms: _437  and  _439
REMARK  177  A    between atoms: _439  and  _440
REMARK  178  A    between atoms: _442  and  _444
REMARK  179  A    between atoms: _444  and  _445
REMARK  180  A    between atoms: _444  and  _447
REMARK  181  A    between atoms: _447  and  _448
REMARK  182  A    between atoms: _451  and  _453
REMARK  183  A    between atoms: _453  and  _454
REMARK  184  A    between atoms: _456  and  _458
REMARK  185  A    between atoms: _458  and  _459
REMARK  186  A    between atoms: _458  and  _461
REMARK  187  A    between atoms: _461  and  _462
REMARK  188  A    between atoms: _468  and  _470
REMARK  189  A    between atoms: _470  and  _471
REMARK  190  A    between atoms: _470  and  _473
REMARK  191  A    between atoms: _476  and  _478
REMARK  192  A    between atoms: _478  and  _479
REMARK  193  A    between atoms: _478  and  _481
REMARK  194  A    between atoms: _481  and  _482
REMARK  195  A    between atoms: _485  and  _487
REMARK  196  A    between atoms: _487  and  _488
REMARK  197  A    between atoms: _490  and  _492
REMARK  198  A    between atoms: _492  and  _493
REMARK  199  A    between atoms: _492  and  _495
REMARK  200  A    between atoms: _495  and  _496
REMARK  201  A    between atoms: _496  and  _497
REMARK  202  A    between atoms: _497  and  MG_734
REMARK  203  A    between atoms: _499  and  _501
REMARK  204  A    between atoms: _501  and  _502
REMARK  205  A    between atoms: _504  and  _506
REMARK  206  A    between atoms: _506  and  _507
REMARK  207  A    between atoms: _506  and  _509
REMARK  208  A    between atoms: _509  and  _510
REMARK  209  A    between atoms: _512  and  _514
REMARK  210  A    between atoms: _514  and  _515
REMARK  211  A    between atoms: _518  and  _520
REMARK  212  A    between atoms: _520  and  _521
REMARK  213  A    between atoms: _520  and  _523
REMARK  214  A    between atoms: _523  and  _524
REMARK  215  A    between atoms: _529  and  _531
REMARK  216  A    between atoms: _531  and  _532
REMARK  217  A    between atoms: _531  and  _534
REMARK  218  A    between atoms: _534  and  _535
REMARK  219  A    between atoms: _540  and  _541
REMARK  220  A    between atoms: _543  and  _545
REMARK  221  A    between atoms: _545  and  _546
REMARK  222  A    between atoms: _545  and  _548
REMARK  223  A    between atoms: _548  and  _549
REMARK  224  A    between atoms: _552  and  _554
REMARK  225  A    between atoms: _554  and  _555
REMARK  226  A    between atoms: _554  and  _557
REMARK  227  A    between atoms: _557  and  _558
REMARK  228  A    between atoms: _558  and  _559
REMARK  229  A    between atoms: _561  and  _563
REMARK  230  A    between atoms: _563  and  _564
REMARK  231  A    between atoms: _563  and  _566
REMARK  232  A    between atoms: _566  and  _567
REMARK  233  A    between atoms: _572  and  _574
REMARK  234  A    between atoms: _574  and  _575
REMARK  235  A    between atoms: _574  and  _577
REMARK  236  A    between atoms: _577  and  _578
REMARK  237  A    between atoms: _583  and  _585
REMARK  238  A    between atoms: _585  and  _586
REMARK  239  A    between atoms: _588  and  _590
REMARK  240  A    between atoms: _590  and  _591
REMARK  241  A    between atoms: _590  and  _593
REMARK  242  A    between atoms: _591  and  _592
REMARK  243  A    between atoms: _591  and  _597
REMARK  244  A    between atoms: _592  and  MG_734
REMARK  245  A    between atoms: _593  and  _594
REMARK  246  A    between atoms: _597  and  _599
REMARK  247  A    between atoms: _599  and  _600
REMARK  248  A    between atoms: _599  and  _602
REMARK  249  A    between atoms: _602  and  _603
REMARK  250  A    between atoms: _608  and  _609
REMARK  251  A    between atoms: _611  and  _613
REMARK  252  A    between atoms: _613  and  _614
REMARK  253  A    between atoms: _616  and  _618
REMARK  254  A    between atoms: _618  and  _619
REMARK  255  A    between atoms: _622  and  _624
REMARK  256  A    between atoms: _624  and  _625
REMARK  257  A    between atoms: _624  and  _627
REMARK  258  A    between atoms: _627  and  _628
REMARK  259  A    between atoms: _631  and  _633
REMARK  260  A    between atoms: _633  and  _634
REMARK  261  A    between atoms: _633  and  _636
REMARK  262  A    between atoms: _636  and  _637
REMARK  263  A    between atoms: _637  and  _638
REMARK  264  A    between atoms: _638  and  _639
REMARK  265  A    between atoms: _648  and  _650
REMARK  266  A    between atoms: _650  and  _651
REMARK  267  A    between atoms: _650  and  _653
REMARK  268  A    between atoms: _653  and  _654
REMARK  269  A    between atoms: _664  and  _666
REMARK  270  A    between atoms: _666  and  _667
REMARK  271  A    between atoms: _666  and  _669
REMARK  272  A    between atoms: _669  and  _670
REMARK  273  A    between atoms: _676  and  _678
REMARK  274  A    between atoms: _678  and  _679
REMARK  275  A    between atoms: _681  and  _683
REMARK  276  A    between atoms: _683  and  _684
REMARK  277  A    between atoms: _683  and  _686
REMARK  278  A    between atoms: _686  and  _687
REMARK  279  A    between atoms: _690  and  _692
REMARK  280  A    between atoms: _692  and  _693
REMARK  281  A    between atoms: _692  and  _695
REMARK  282  A    between atoms: _698  and  _700
REMARK  283  A    between atoms: _700  and  _701
REMARK  284  A    between atoms: _700  and  _703
REMARK  285  A    between atoms: _703  and  _704
REMARK  286  A    between atoms: _710  and  _712
REMARK  287  A    between atoms: _712  and  _713
REMARK  288  A    between atoms: _712  and  _715
REMARK  289  A    between atoms: _715  and  _716
REMARK  290  A    between atoms: _719  and  _721
REMARK  291  A    between atoms: _721  and  _722
REMARK  292  A    between atoms: _721  and  _724
REMARK  293  A    between atoms: _728  and  _729
REMARK                            x       y       z     vdW  Elec       q    Type
REMARK                         _______ _______ _______ _____ _____    ______ ____
ROOT
ATOM      1  O   HOH     1      63.950  62.577 156.257  0.00  0.00    +0.000 OA
ENDROOT
TORSDOF 0
REMARK  Name = ../refined-set-2016/3f6e/3f6e_pocket.pdb
REMARK  293 active torsions:
REMARK  status: ('A' for Active; 'I' for Inactive)
REMARK    1  A    between atoms: _1  and  _3
REMARK    2  A    between atoms: _3  and  _4
REMARK    3  A    between atoms: _3  and  _6
REMARK    4  A    between atoms: _6  and  _7
REMARK    5  A    between atoms: _13  and  _14
REMARK    6  A    between atoms: _19  and  _21
REMARK    7  A    between atoms: _21  and  _22
REMARK    8  A    between atoms: _24  and  _26
REMARK    9  A    between atoms: _26  and  _27
REMARK   10  A    between atoms: _26  and  _29
REMARK   11  A    between atoms: _29  and  _30
REMARK   12  A    between atoms: _32  and  _34
REMARK   13  A    between atoms: _34  and  _35
REMARK   14  A    between atoms: _34  and  _37
REMARK   15  A    between atoms: _37  and  _38
REMARK   16  A    between atoms: _43  and  _45
REMARK   17  A    between atoms: _45  and  _46
REMARK   18  A    between atoms: _45  and  _48
REMARK   19  A    between atoms: _48  and  _49
REMARK   20  A    between atoms: _49  and  _50
REMARK   21  A    between atoms: _53  and  _55
REMARK   22  A    between atoms: _55  and  _56
REMARK   23  A    between atoms: _55  and  _58
REMARK   24  A    between atoms: _58  and  _59
REMARK   25  A    between atoms: _62  and  _64
REMARK   26  A    between atoms: _64  and  _65
REMARK   27  A    between atoms: _64  and  _67
REMARK   28  A    between atoms: _67  and  _68
REMARK   29  A    between atoms: _71  and  _73
REMARK   30  A    between atoms: _73  and  _74
REMARK   31  A    between atoms: _77  and  _79
REMARK   32  A    between atoms: _79  and  _80
REMARK   33  A    between atoms: _79  and  _82
REMARK   34  A    between atoms: _82  and  _83
REMARK   35  A    between atoms: _86  and  _88
REMARK   36  A    between atoms: _88  and  _89
REMARK   37  A    between atoms: _88  and  _91
REMARK   38  A    between atoms: _91  and  _92
REMARK   39  A    between atoms: _92  and  _93
REMARK   40  A    between atoms: _98  and  _100
REMARK   41  A    between atoms: _100  and  _101
REMARK   42  A    between atoms: _100  and  _103
REMARK   43  A    between atoms: _103  and  _104
REMARK   44  A    between atoms: _104  and  _105
REMARK   45  A    between atoms: _108  and  _110
REMARK   46  A    between atoms: _110  and  _111
REMARK   47  A    between atoms: _114  and  _116
REMARK   48  A    between atoms: _116  and  _117
REMARK   49  A    between atoms: _116  and  _119
REMARK   50  A    between atoms: _119  and  _120
REMARK   51  A    between atoms: _123  and  _125
REMARK   52  A    between atoms: _125  and  _126
REMARK   53  A    between atoms: _125  and  _128
REMARK   54  A    between atoms: _128  and  _129
REMARK   55  A    between atoms: _134  and  _136
REMARK   56  A    between atoms: _136  and  _137
REMARK   57  A    between atoms: _136  and  _139
REMARK   58  A    between atoms: _139  and  _140
REMARK   59  A    between atoms: _142  and  _144
REMARK   60  A    between atoms: _144  and  _145
REMARK   61  A    between atoms: _148  and  _150
REMARK   62  A    between atoms: _150  and  _151
REMARK   63  A    between atoms: _154  and  _156
REMARK   64  A    between atoms: _156  and  _157
REMARK   65  A    between atoms: _159  and  _161
REMARK   66  A    between atoms: _161  and  _162
REMARK   67  A    between atoms: _161  and  _164
REMARK   68  A    between atoms: _164  and  _165
REMARK   69  A    between atoms: _168  and  _170
REMARK   70  A    between atoms: _170  and  _171
REMARK   71  A    between atoms: _173  and  _175
REMARK   72  A    between atoms: _175  and  _176
REMARK   73  A    between atoms: _175  and  _178
REMARK   74  A    between atoms: _178  and  _179
REMARK   75  A    between atoms: _184  and  _186
REMARK   76  A    between atoms: _186  and  _187
REMARK   77  A    between atoms: _190  and  _192
REMARK   78  A    between atoms: _192  and  _193
REMARK   79  A    between atoms: _192  and  _195
REMARK   80  A    between atoms: _195  and  _196
REMARK   81  A    between atoms: _196  and  _197
REMARK   82  A    between atoms: _202  and  _204
REMARK   83  A    between atoms: _204  and  _205
REMARK   84  A    between atoms: _204  and  _207
REMARK   85  A    between atoms: _207  and  _208
REMARK   86  A    between atoms: _211  and  _213
REMARK   87  A    between atoms: _213  and  _214
REMARK   88  A    between atoms: _213  and  _216
REMARK   89  A    between atoms: _216  and  _217
REMARK   90  A    between atoms: _220  and  _222
REMARK   91  A    between atoms: _222  and  _223
REMARK   92  A    between atoms: _225  and  _227
REMARK   93  A    between atoms: _227  and  _228
REMARK   94  A    between atoms: _231  and  _233
REMARK   95  A    between atoms: _233  and  _234
REMARK   96  A    between atoms: _233  and  _236
REMARK   97  A    between atoms: _236  and  _237
REMARK   98  A    between atoms: _239  and  _241
REMARK   99  A    between atoms: _241  and  _242
REMARK  100  A    between atoms: _241  and  _244
REMARK  101  A    between atoms: _244  and  _245
REMARK  102  A    between atoms: _250  and  _252
REMARK  103  A    between atoms: _252  and  _253
REMARK  104  A    between atoms: _252  and  _255
REMARK  105  A    between atoms: _255  and  _256
REMARK  106  A    between atoms: _258  and  _260
REMARK  107  A    between atoms: _260  and  _261
REMARK  108  A    between atoms: _264  and  _266
REMARK  109  A    between atoms: _266  and  _267
REMARK  110  A    between atoms: _270  and  _272
REMARK  111  A    between atoms: _272  and  _273
REMARK  112  A    between atoms: _272  and  _275
REMARK  113  A    between atoms: _275  and  _276
REMARK  114  A    between atoms: _276  and  _277
REMARK  115  A    between atoms: _277  and  _278
REMARK  116  A    between atoms: _287  and  _289
REMARK  117  A    between atoms: _289  and  _290
REMARK  118  A    between atoms: _289  and  _292
REMARK  119  A    between atoms: _292  and  _293
REMARK  120  A    between atoms: _298  and  _299
REMARK  121  A    between atoms: _301  and  _303
REMARK  122  A    between atoms: _303  and  _304
REMARK  123  A    between atoms: _303  and  _306
REMARK  124  A    between atoms: _306  and  _307
REMARK  125  A    between atoms: _312  and  _314
REMARK  126  A    between atoms: _314  and  _315
REMARK  127  A    between atoms: _314  and  _317
REMARK  128  A    between atoms: _317  and  _318
REMARK  129  A    between atoms: _318  and  _319
REMARK  130  A    between atoms: _325  and  _326
REMARK  131  A    between atoms: _331  and  _333
REMARK  132  A    between atoms: _333  and  _334
REMARK  133  A    between atoms: _333  and  _336
REMARK  134  A    between atoms: _336  and  _337
REMARK  135  A    between atoms: _342  and  _344
REMARK  136  A    between atoms: _344  and  _345
REMARK  137  A    between atoms: _344  and  _347
REMARK  138  A    between atoms: _347  and  _348
REMARK  139  A    between atoms: _348  and  _349
REMARK  140  A    between atoms: _352  and  _354
REMARK  141  A    between atoms: _354  and  _355
REMARK  142  A    between atoms: _354  and  _357
REMARK  143  A    between atoms: _357  and  _358
REMARK  144  A    between atoms: _360  and  _362
REMARK  145  A    between atoms: _362  and  _363
REMARK  146  A    between atoms: _362  and  _365
REMARK  147  A    between atoms: _365  and  _366
REMARK  148  A    between atoms: _369  and  _371
REMARK  149  A    between atoms: _371  and  _372
REMARK  150  A    between atoms: _371  and  _374
REMARK  151  A    between atoms: _374  and  _375
REMARK  152  A    between atoms: _377  and  _379
REMARK  153  A    between atoms: _379  and  _380
REMARK  154  A    between atoms: _379  and  _382
REMARK  155  A    between atoms: _382  and  _383
REMARK  156  A    between atoms: _386  and  _388
REMARK  157  A    between atoms: _388  and  _389
REMARK  158  A    between atoms: _388  and  _391
REMARK  159  A    between atoms: _391  and  _392
REMARK  160  A    between atoms: _395  and  _397
REMARK  161  A    between atoms: _397  and  _398
REMARK  162  A    between atoms: _397  and  _400
REMARK  163  A    between atoms: _400  and  _401
REMARK  164  A    between atoms: _401  and  _402
REMARK  165  A    between atoms: _407  and  _409
REMARK  166  A    between atoms: _409  and  _410
REMARK  167  A    between atoms: _409  and  _412
REMARK  168  A    between atoms: _412  and  _413
REMARK  169  A    between atoms: _419  and  _421
REMARK  170  A    between atoms: _421  and  _422
REMARK  171  A    between atoms: _421  and  _424
REMARK  172  A    between atoms: _426  and  _428
REMARK  173  A    between atoms: _428  and  _429
REMARK  174  A    between atoms: _432  and  _434
REMARK  175  A    between atoms: _434  and  _435
REMARK  176  A    between atoms: _437  and  _439
REMARK  177  A    between atoms: _439  and  _440
REMARK  178  A    between atoms: _442  and  _444
REMARK  179  A    between atoms: _444  and  _445
REMARK  180  A    between atoms: _444  and  _447
REMARK  181  A    between atoms: _447  and  _448
REMARK  182  A    between atoms: _451  and  _453
REMARK  183  A    between atoms: _453  and  _454
REMARK  184  A    between atoms: _456  and  _458
REMARK  185  A    between atoms: _458  and  _459
REMARK  186  A    between atoms: _458  and  _461
REMARK  187  A    between atoms: _461  and  _462
REMARK  188  A    between atoms: _468  and  _470
REMARK  189  A    between atoms: _470  and  _471
REMARK  190  A    between atoms: _470  and  _473
REMARK  191  A    between atoms: _476  and  _478
REMARK  192  A    between atoms: _478  and  _479
REMARK  193  A    between atoms: _478  and  _481
REMARK  194  A    between atoms: _481  and  _482
REMARK  195  A    between atoms: _485  and  _487
REMARK  196  A    between atoms: _487  and  _488
REMARK  197  A    between atoms: _490  and  _492
REMARK  198  A    between atoms: _492  and  _493
REMARK  199  A    between atoms: _492  and  _495
REMARK  200  A    between atoms: _495  and  _496
REMARK  201  A    between atoms: _496  and  _497
REMARK  202  A    between atoms: _497  and  MG_734
REMARK  203  A    between atoms: _499  and  _501
REMARK  204  A    between atoms: _501  and  _502
REMARK  205  A    between atoms: _504  and  _506
REMARK  206  A    between atoms: _506  and  _507
REMARK  207  A    between atoms: _506  and  _509
REMARK  208  A    between atoms: _509  and  _510
REMARK  209  A    between atoms: _512  and  _514
REMARK  210  A    between atoms: _514  and  _515
REMARK  211  A    between atoms: _518  and  _520
REMARK  212  A    between atoms: _520  and  _521
REMARK  213  A    between atoms: _520  and  _523
REMARK  214  A    between atoms: _523  and  _524
REMARK  215  A    between atoms: _529  and  _531
REMARK  216  A    between atoms: _531  and  _532
REMARK  217  A    between atoms: _531  and  _534
REMARK  218  A    between atoms: _534  and  _535
REMARK  219  A    between atoms: _540  and  _541
REMARK  220  A    between atoms: _543  and  _545
REMARK  221  A    between atoms: _545  and  _546
REMARK  222  A    between atoms: _545  and  _548
REMARK  223  A    between atoms: _548  and  _549
REMARK  224  A    between atoms: _552  and  _554
REMARK  225  A    between atoms: _554  and  _555
REMARK  226  A    between atoms: _554  and  _557
REMARK  227  A    between atoms: _557  and  _558
REMARK  228  A    between atoms: _558  and  _559
REMARK  229  A    between atoms: _561  and  _563
REMARK  230  A    between atoms: _563  and  _564
REMARK  231  A    between atoms: _563  and  _566
REMARK  232  A    between atoms: _566  and  _567
REMARK  233  A    between atoms: _572  and  _574
REMARK  234  A    between atoms: _574  and  _575
REMARK  235  A    between atoms: _574  and  _577
REMARK  236  A    between atoms: _577  and  _578
REMARK  237  A    between atoms: _583  and  _585
REMARK  238  A    between atoms: _585  and  _586
REMARK  239  A    between atoms: _588  and  _590
REMARK  240  A    between atoms: _590  and  _591
REMARK  241  A    between atoms: _590  and  _593
REMARK  242  A    between atoms: _591  and  _592
REMARK  243  A    between atoms: _591  and  _597
REMARK  244  A    between atoms: _592  and  MG_734
REMARK  245  A    between atoms: _593  and  _594
REMARK  246  A    between atoms: _597  and  _599
REMARK  247  A    between atoms: _599  and  _600
REMARK  248  A    between atoms: _599  and  _602
REMARK  249  A    between atoms: _602  and  _603
REMARK  250  A    between atoms: _608  and  _609
REMARK  251  A    between atoms: _611  and  _613
REMARK  252  A    between atoms: _613  and  _614
REMARK  253  A    between atoms: _616  and  _618
REMARK  254  A    between atoms: _618  and  _619
REMARK  255  A    between atoms: _622  and  _624
REMARK  256  A    between atoms: _624  and  _625
REMARK  257  A    between atoms: _624  and  _627
REMARK  258  A    between atoms: _627  and  _628
REMARK  259  A    between atoms: _631  and  _633
REMARK  260  A    between atoms: _633  and  _634
REMARK  261  A    between atoms: _633  and  _636
REMARK  262  A    between atoms: _636  and  _637
REMARK  263  A    between atoms: _637  and  _638
REMARK  264  A    between atoms: _638  and  _639
REMARK  265  A    between atoms: _648  and  _650
REMARK  266  A    between atoms: _650  and  _651
REMARK  267  A    between atoms: _650  and  _653
REMARK  268  A    between atoms: _653  and  _654
REMARK  269  A    between atoms: _664  and  _666
REMARK  270  A    between atoms: _666  and  _667
REMARK  271  A    between atoms: _666  and  _669
REMARK  272  A    between atoms: _669  and  _670
REMARK  273  A    between atoms: _676  and  _678
REMARK  274  A    between atoms: _678  and  _679
REMARK  275  A    between atoms: _681  and  _683
REMARK  276  A    between atoms: _683  and  _684
REMARK  277  A    between atoms: _683  and  _686
REMARK  278  A    between atoms: _686  and  _687
REMARK  279  A    between atoms: _690  and  _692
REMARK  280  A    between atoms: _692  and  _693
REMARK  281  A    between atoms: _692  and  _695
REMARK  282  A    between atoms: _698  and  _700
REMARK  283  A    between atoms: _700  and  _701
REMARK  284  A    between atoms: _700  and  _703
REMARK  285  A    between atoms: _703  and  _704
REMARK  286  A    between atoms: _710  and  _712
REMARK  287  A    between atoms: _712  and  _713
REMARK  288  A    between atoms: _712  and  _715
REMARK  289  A    between atoms: _715  and  _716
REMARK  290  A    between atoms: _719  and  _721
REMARK  291  A    between atoms: _721  and  _722
REMARK  292  A    between atoms: _721  and  _724
REMARK  293  A    between atoms: _728  and  _729
REMARK                            x       y       z     vdW  Elec       q    Type
REMARK                         _______ _______ _______ _____ _____    ______ ____
ROOT
ATOM      1  O   HOH     1      60.709  63.624 164.364  0.00  0.00    +0.000 OA
ENDROOT
TORSDOF 0
REMARK  Name = ../refined-set-2016/3f6e/3f6e_pocket.pdb
REMARK  293 active torsions:
REMARK  status: ('A' for Active; 'I' for Inactive)
REMARK    1  A    between atoms: _1  and  _3
REMARK    2  A    between atoms: _3  and  _4
REMARK    3  A    between atoms: _3  and  _6
REMARK    4  A    between atoms: _6  and  _7
REMARK    5  A    between atoms: _13  and  _14
REMARK    6  A    between atoms: _19  and  _21
REMARK    7  A    between atoms: _21  and  _22
REMARK    8  A    between atoms: _24  and  _26
REMARK    9  A    between atoms: _26  and  _27
REMARK   10  A    between atoms: _26  and  _29
REMARK   11  A    between atoms: _29  and  _30
REMARK   12  A    between atoms: _32  and  _34
REMARK   13  A    between atoms: _34  and  _35
REMARK   14  A    between atoms: _34  and  _37
REMARK   15  A    between atoms: _37  and  _38
REMARK   16  A    between atoms: _43  and  _45
REMARK   17  A    between atoms: _45  and  _46
REMARK   18  A    between atoms: _45  and  _48
REMARK   19  A    between atoms: _48  and  _49
REMARK   20  A    between atoms: _49  and  _50
REMARK   21  A    between atoms: _53  and  _55
REMARK   22  A    between atoms: _55  and  _56
REMARK   23  A    between atoms: _55  and  _58
REMARK   24  A    between atoms: _58  and  _59
REMARK   25  A    between atoms: _62  and  _64
REMARK   26  A    between atoms: _64  and  _65
REMARK   27  A    between atoms: _64  and  _67
REMARK   28  A    between atoms: _67  and  _68
REMARK   29  A    between atoms: _71  and  _73
REMARK   30  A    between atoms: _73  and  _74
REMARK   31  A    between atoms: _77  and  _79
REMARK   32  A    between atoms: _79  and  _80
REMARK   33  A    between atoms: _79  and  _82
REMARK   34  A    between atoms: _82  and  _83
REMARK   35  A    between atoms: _86  and  _88
REMARK   36  A    between atoms: _88  and  _89
REMARK   37  A    between atoms: _88  and  _91
REMARK   38  A    between atoms: _91  and  _92
REMARK   39  A    between atoms: _92  and  _93
REMARK   40  A    between atoms: _98  and  _100
REMARK   41  A    between atoms: _100  and  _101
REMARK   42  A    between atoms: _100  and  _103
REMARK   43  A    between atoms: _103  and  _104
REMARK   44  A    between atoms: _104  and  _105
REMARK   45  A    between atoms: _108  and  _110
REMARK   46  A    between atoms: _110  and  _111
REMARK   47  A    between atoms: _114  and  _116
REMARK   48  A    between atoms: _116  and  _117
REMARK   49  A    between atoms: _116  and  _119
REMARK   50  A    between atoms: _119  and  _120
REMARK   51  A    between atoms: _123  and  _125
REMARK   52  A    between atoms: _125  and  _126
REMARK   53  A    between atoms: _125  and  _128
REMARK   54  A    between atoms: _128  and  _129
REMARK   55  A    between atoms: _134  and  _136
REMARK   56  A    between atoms: _136  and  _137
REMARK   57  A    between atoms: _136  and  _139
REMARK   58  A    between atoms: _139  and  _140
REMARK   59  A    between atoms: _142  and  _144
REMARK   60  A    between atoms: _144  and  _145
REMARK   61  A    between atoms: _148  and  _150
REMARK   62  A    between atoms: _150  and  _151
REMARK   63  A    between atoms: _154  and  _156
REMARK   64  A    between atoms: _156  and  _157
REMARK   65  A    between atoms: _159  and  _161
REMARK   66  A    between atoms: _161  and  _162
REMARK   67  A    between atoms: _161  and  _164
REMARK   68  A    between atoms: _164  and  _165
REMARK   69  A    between atoms: _168  and  _170
REMARK   70  A    between atoms: _170  and  _171
REMARK   71  A    between atoms: _173  and  _175
REMARK   72  A    between atoms: _175  and  _176
REMARK   73  A    between atoms: _175  and  _178
REMARK   74  A    between atoms: _178  and  _179
REMARK   75  A    between atoms: _184  and  _186
REMARK   76  A    between atoms: _186  and  _187
REMARK   77  A    between atoms: _190  and  _192
REMARK   78  A    between atoms: _192  and  _193
REMARK   79  A    between atoms: _192  and  _195
REMARK   80  A    between atoms: _195  and  _196
REMARK   81  A    between atoms: _196  and  _197
REMARK   82  A    between atoms: _202  and  _204
REMARK   83  A    between atoms: _204  and  _205
REMARK   84  A    between atoms: _204  and  _207
REMARK   85  A    between atoms: _207  and  _208
REMARK   86  A    between atoms: _211  and  _213
REMARK   87  A    between atoms: _213  and  _214
REMARK   88  A    between atoms: _213  and  _216
REMARK   89  A    between atoms: _216  and  _217
REMARK   90  A    between atoms: _220  and  _222
REMARK   91  A    between atoms: _222  and  _223
REMARK   92  A    between atoms: _225  and  _227
REMARK   93  A    between atoms: _227  and  _228
REMARK   94  A    between atoms: _231  and  _233
REMARK   95  A    between atoms: _233  and  _234
REMARK   96  A    between atoms: _233  and  _236
REMARK   97  A    between atoms: _236  and  _237
REMARK   98  A    between atoms: _239  and  _241
REMARK   99  A    between atoms: _241  and  _242
REMARK  100  A    between atoms: _241  and  _244
REMARK  101  A    between atoms: _244  and  _245
REMARK  102  A    between atoms: _250  and  _252
REMARK  103  A    between atoms: _252  and  _253
REMARK  104  A    between atoms: _252  and  _255
REMARK  105  A    between atoms: _255  and  _256
REMARK  106  A    between atoms: _258  and  _260
REMARK  107  A    between atoms: _260  and  _261
REMARK  108  A    between atoms: _264  and  _266
REMARK  109  A    between atoms: _266  and  _267
REMARK  110  A    between atoms: _270  and  _272
REMARK  111  A    between atoms: _272  and  _273
REMARK  112  A    between atoms: _272  and  _275
REMARK  113  A    between atoms: _275  and  _276
REMARK  114  A    between atoms: _276  and  _277
REMARK  115  A    between atoms: _277  and  _278
REMARK  116  A    between atoms: _287  and  _289
REMARK  117  A    between atoms: _289  and  _290
REMARK  118  A    between atoms: _289  and  _292
REMARK  119  A    between atoms: _292  and  _293
REMARK  120  A    between atoms: _298  and  _299
REMARK  121  A    between atoms: _301  and  _303
REMARK  122  A    between atoms: _303  and  _304
REMARK  123  A    between atoms: _303  and  _306
REMARK  124  A    between atoms: _306  and  _307
REMARK  125  A    between atoms: _312  and  _314
REMARK  126  A    between atoms: _314  and  _315
REMARK  127  A    between atoms: _314  and  _317
REMARK  128  A    between atoms: _317  and  _318
REMARK  129  A    between atoms: _318  and  _319
REMARK  130  A    between atoms: _325  and  _326
REMARK  131  A    between atoms: _331  and  _333
REMARK  132  A    between atoms: _333  and  _334
REMARK  133  A    between atoms: _333  and  _336
REMARK  134  A    between atoms: _336  and  _337
REMARK  135  A    between atoms: _342  and  _344
REMARK  136  A    between atoms: _344  and  _345
REMARK  137  A    between atoms: _344  and  _347
REMARK  138  A    between atoms: _347  and  _348
REMARK  139  A    between atoms: _348  and  _349
REMARK  140  A    between atoms: _352  and  _354
REMARK  141  A    between atoms: _354  and  _355
REMARK  142  A    between atoms: _354  and  _357
REMARK  143  A    between atoms: _357  and  _358
REMARK  144  A    between atoms: _360  and  _362
REMARK  145  A    between atoms: _362  and  _363
REMARK  146  A    between atoms: _362  and  _365
REMARK  147  A    between atoms: _365  and  _366
REMARK  148  A    between atoms: _369  and  _371
REMARK  149  A    between atoms: _371  and  _372
REMARK  150  A    between atoms: _371  and  _374
REMARK  151  A    between atoms: _374  and  _375
REMARK  152  A    between atoms: _377  and  _379
REMARK  153  A    between atoms: _379  and  _380
REMARK  154  A    between atoms: _379  and  _382
REMARK  155  A    between atoms: _382  and  _383
REMARK  156  A    between atoms: _386  and  _388
REMARK  157  A    between atoms: _388  and  _389
REMARK  158  A    between atoms: _388  and  _391
REMARK  159  A    between atoms: _391  and  _392
REMARK  160  A    between atoms: _395  and  _397
REMARK  161  A    between atoms: _397  and  _398
REMARK  162  A    between atoms: _397  and  _400
REMARK  163  A    between atoms: _400  and  _401
REMARK  164  A    between atoms: _401  and  _402
REMARK  165  A    between atoms: _407  and  _409
REMARK  166  A    between atoms: _409  and  _410
REMARK  167  A    between atoms: _409  and  _412
REMARK  168  A    between atoms: _412  and  _413
REMARK  169  A    between atoms: _419  and  _421
REMARK  170  A    between atoms: _421  and  _422
REMARK  171  A    between atoms: _421  and  _424
REMARK  172  A    between atoms: _426  and  _428
REMARK  173  A    between atoms: _428  and  _429
REMARK  174  A    between atoms: _432  and  _434
REMARK  175  A    between atoms: _434  and  _435
REMARK  176  A    between atoms: _437  and  _439
REMARK  177  A    between atoms: _439  and  _440
REMARK  178  A    between atoms: _442  and  _444
REMARK  179  A    between atoms: _444  and  _445
REMARK  180  A    between atoms: _444  and  _447
REMARK  181  A    between atoms: _447  and  _448
REMARK  182  A    between atoms: _451  and  _453
REMARK  183  A    between atoms: _453  and  _454
REMARK  184  A    between atoms: _456  and  _458
REMARK  185  A    between atoms: _458  and  _459
REMARK  186  A    between atoms: _458  and  _461
REMARK  187  A    between atoms: _461  and  _462
REMARK  188  A    between atoms: _468  and  _470
REMARK  189  A    between atoms: _470  and  _471
REMARK  190  A    between atoms: _470  and  _473
REMARK  191  A    between atoms: _476  and  _478
REMARK  192  A    between atoms: _478  and  _479
REMARK  193  A    between atoms: _478  and  _481
REMARK  194  A    between atoms: _481  and  _482
REMARK  195  A    between atoms: _485  and  _487
REMARK  196  A    between atoms: _487  and  _488
REMARK  197  A    between atoms: _490  and  _492
REMARK  198  A    between atoms: _492  and  _493
REMARK  199  A    between atoms: _492  and  _495
REMARK  200  A    between atoms: _495  and  _496
REMARK  201  A    between atoms: _496  and  _497
REMARK  202  A    between atoms: _497  and  MG_734
REMARK  203  A    between atoms: _499  and  _501
REMARK  204  A    between atoms: _501  and  _502
REMARK  205  A    between atoms: _504  and  _506
REMARK  206  A    between atoms: _506  and  _507
REMARK  207  A    between atoms: _506  and  _509
REMARK  208  A    between atoms: _509  and  _510
REMARK  209  A    between atoms: _512  and  _514
REMARK  210  A    between atoms: _514  and  _515
REMARK  211  A    between atoms: _518  and  _520
REMARK  212  A    between atoms: _520  and  _521
REMARK  213  A    between atoms: _520  and  _523
REMARK  214  A    between atoms: _523  and  _524
REMARK  215  A    between atoms: _529  and  _531
REMARK  216  A    between atoms: _531  and  _532
REMARK  217  A    between atoms: _531  and  _534
REMARK  218  A    between atoms: _534  and  _535
REMARK  219  A    between atoms: _540  and  _541
REMARK  220  A    between atoms: _543  and  _545
REMARK  221  A    between atoms: _545  and  _546
REMARK  222  A    between atoms: _545  and  _548
REMARK  223  A    between atoms: _548  and  _549
REMARK  224  A    between atoms: _552  and  _554
REMARK  225  A    between atoms: _554  and  _555
REMARK  226  A    between atoms: _554  and  _557
REMARK  227  A    between atoms: _557  and  _558
REMARK  228  A    between atoms: _558  and  _559
REMARK  229  A    between atoms: _561  and  _563
REMARK  230  A    between atoms: _563  and  _564
REMARK  231  A    between atoms: _563  and  _566
REMARK  232  A    between atoms: _566  and  _567
REMARK  233  A    between atoms: _572  and  _574
REMARK  234  A    between atoms: _574  and  _575
REMARK  235  A    between atoms: _574  and  _577
REMARK  236  A    between atoms: _577  and  _578
REMARK  237  A    between atoms: _583  and  _585
REMARK  238  A    between atoms: _585  and  _586
REMARK  239  A    between atoms: _588  and  _590
REMARK  240  A    between atoms: _590  and  _591
REMARK  241  A    between atoms: _590  and  _593
REMARK  242  A    between atoms: _591  and  _592
REMARK  243  A    between atoms: _591  and  _597
REMARK  244  A    between atoms: _592  and  MG_734
REMARK  245  A    between atoms: _593  and  _594
REMARK  246  A    between atoms: _597  and  _599
REMARK  247  A    between atoms: _599  and  _600
REMARK  248  A    between atoms: _599  and  _602
REMARK  249  A    between atoms: _602  and  _603
REMARK  250  A    between atoms: _608  and  _609
REMARK  251  A    between atoms: _611  and  _613
REMARK  252  A    between atoms: _613  and  _614
REMARK  253  A    between atoms: _616  and  _618
REMARK  254  A    between atoms: _618  and  _619
REMARK  255  A    between atoms: _622  and  _624
REMARK  256  A    between atoms: _624  and  _625
REMARK  257  A    between atoms: _624  and  _627
REMARK  258  A    between atoms: _627  and  _628
REMARK  259  A    between atoms: _631  and  _633
REMARK  260  A    between atoms: _633  and  _634
REMARK  261  A    between atoms: _633  and  _636
REMARK  262  A    between atoms: _636  and  _637
REMARK  263  A    between atoms: _637  and  _638
REMARK  264  A    between atoms: _638  and  _639
REMARK  265  A    between atoms: _648  and  _650
REMARK  266  A    between atoms: _650  and  _651
REMARK  267  A    between atoms: _650  and  _653
REMARK  268  A    between atoms: _653  and  _654
REMARK  269  A    between atoms: _664  and  _666
REMARK  270  A    between atoms: _666  and  _667
REMARK  271  A    between atoms: _666  and  _669
REMARK  272  A    between atoms: _669  and  _670
REMARK  273  A    between atoms: _676  and  _678
REMARK  274  A    between atoms: _678  and  _679
REMARK  275  A    between atoms: _681  and  _683
REMARK  276  A    between atoms: _683  and  _684
REMARK  277  A    between atoms: _683  and  _686
REMARK  278  A    between atoms: _686  and  _687
REMARK  279  A    between atoms: _690  and  _692
REMARK  280  A    between atoms: _692  and  _693
REMARK  281  A    between atoms: _692  and  _695
REMARK  282  A    between atoms: _698  and  _700
REMARK  283  A    between atoms: _700  and  _701
REMARK  284  A    between atoms: _700  and  _703
REMARK  285  A    between atoms: _703  and  _704
REMARK  286  A    between atoms: _710  and  _712
REMARK  287  A    between atoms: _712  and  _713
REMARK  288  A    between atoms: _712  and  _715
REMARK  289  A    between atoms: _715  and  _716
REMARK  290  A    between atoms: _719  and  _721
REMARK  291  A    between atoms: _721  and  _722
REMARK  292  A    between atoms: _721  and  _724
REMARK  293  A    between atoms: _728  and  _729
REMARK                            x       y       z     vdW  Elec       q    Type
REMARK                         _______ _______ _______ _____ _____    ______ ____
ROOT
ATOM      1  O   HOH     1      59.472  64.486 157.098  0.00  0.00    +0.000 OA
ENDROOT
TORSDOF 0
REMARK  Name = ../refined-set-2016/3f6e/3f6e_pocket.pdb
REMARK  293 active torsions:
REMARK  status: ('A' for Active; 'I' for Inactive)
REMARK    1  A    between atoms: _1  and  _3
REMARK    2  A    between atoms: _3  and  _4
REMARK    3  A    between atoms: _3  and  _6
REMARK    4  A    between atoms: _6  and  _7
REMARK    5  A    between atoms: _13  and  _14
REMARK    6  A    between atoms: _19  and  _21
REMARK    7  A    between atoms: _21  and  _22
REMARK    8  A    between atoms: _24  and  _26
REMARK    9  A    between atoms: _26  and  _27
REMARK   10  A    between atoms: _26  and  _29
REMARK   11  A    between atoms: _29  and  _30
REMARK   12  A    between atoms: _32  and  _34
REMARK   13  A    between atoms: _34  and  _35
REMARK   14  A    between atoms: _34  and  _37
REMARK   15  A    between atoms: _37  and  _38
REMARK   16  A    between atoms: _43  and  _45
REMARK   17  A    between atoms: _45  and  _46
REMARK   18  A    between atoms: _45  and  _48
REMARK   19  A    between atoms: _48  and  _49
REMARK   20  A    between atoms: _49  and  _50
REMARK   21  A    between atoms: _53  and  _55
REMARK   22  A    between atoms: _55  and  _56
REMARK   23  A    between atoms: _55  and  _58
REMARK   24  A    between atoms: _58  and  _59
REMARK   25  A    between atoms: _62  and  _64
REMARK   26  A    between atoms: _64  and  _65
REMARK   27  A    between atoms: _64  and  _67
REMARK   28  A    between atoms: _67  and  _68
REMARK   29  A    between atoms: _71  and  _73
REMARK   30  A    between atoms: _73  and  _74
REMARK   31  A    between atoms: _77  and  _79
REMARK   32  A    between atoms: _79  and  _80
REMARK   33  A    between atoms: _79  and  _82
REMARK   34  A    between atoms: _82  and  _83
REMARK   35  A    between atoms: _86  and  _88
REMARK   36  A    between atoms: _88  and  _89
REMARK   37  A    between atoms: _88  and  _91
REMARK   38  A    between atoms: _91  and  _92
REMARK   39  A    between atoms: _92  and  _93
REMARK   40  A    between atoms: _98  and  _100
REMARK   41  A    between atoms: _100  and  _101
REMARK   42  A    between atoms: _100  and  _103
REMARK   43  A    between atoms: _103  and  _104
REMARK   44  A    between atoms: _104  and  _105
REMARK   45  A    between atoms: _108  and  _110
REMARK   46  A    between atoms: _110  and  _111
REMARK   47  A    between atoms: _114  and  _116
REMARK   48  A    between atoms: _116  and  _117
REMARK   49  A    between atoms: _116  and  _119
REMARK   50  A    between atoms: _119  and  _120
REMARK   51  A    between atoms: _123  and  _125
REMARK   52  A    between atoms: _125  and  _126
REMARK   53  A    between atoms: _125  and  _128
REMARK   54  A    between atoms: _128  and  _129
REMARK   55  A    between atoms: _134  and  _136
REMARK   56  A    between atoms: _136  and  _137
REMARK   57  A    between atoms: _136  and  _139
REMARK   58  A    between atoms: _139  and  _140
REMARK   59  A    between atoms: _142  and  _144
REMARK   60  A    between atoms: _144  and  _145
REMARK   61  A    between atoms: _148  and  _150
REMARK   62  A    between atoms: _150  and  _151
REMARK   63  A    between atoms: _154  and  _156
REMARK   64  A    between atoms: _156  and  _157
REMARK   65  A    between atoms: _159  and  _161
REMARK   66  A    between atoms: _161  and  _162
REMARK   67  A    between atoms: _161  and  _164
REMARK   68  A    between atoms: _164  and  _165
REMARK   69  A    between atoms: _168  and  _170
REMARK   70  A    between atoms: _170  and  _171
REMARK   71  A    between atoms: _173  and  _175
REMARK   72  A    between atoms: _175  and  _176
REMARK   73  A    between atoms: _175  and  _178
REMARK   74  A    between atoms: _178  and  _179
REMARK   75  A    between atoms: _184  and  _186
REMARK   76  A    between atoms: _186  and  _187
REMARK   77  A    between atoms: _190  and  _192
REMARK   78  A    between atoms: _192  and  _193
REMARK   79  A    between atoms: _192  and  _195
REMARK   80  A    between atoms: _195  and  _196
REMARK   81  A    between atoms: _196  and  _197
REMARK   82  A    between atoms: _202  and  _204
REMARK   83  A    between atoms: _204  and  _205
REMARK   84  A    between atoms: _204  and  _207
REMARK   85  A    between atoms: _207  and  _208
REMARK   86  A    between atoms: _211  and  _213
REMARK   87  A    between atoms: _213  and  _214
REMARK   88  A    between atoms: _213  and  _216
REMARK   89  A    between atoms: _216  and  _217
REMARK   90  A    between atoms: _220  and  _222
REMARK   91  A    between atoms: _222  and  _223
REMARK   92  A    between atoms: _225  and  _227
REMARK   93  A    between atoms: _227  and  _228
REMARK   94  A    between atoms: _231  and  _233
REMARK   95  A    between atoms: _233  and  _234
REMARK   96  A    between atoms: _233  and  _236
REMARK   97  A    between atoms: _236  and  _237
REMARK   98  A    between atoms: _239  and  _241
REMARK   99  A    between atoms: _241  and  _242
REMARK  100  A    between atoms: _241  and  _244
REMARK  101  A    between atoms: _244  and  _245
REMARK  102  A    between atoms: _250  and  _252
REMARK  103  A    between atoms: _252  and  _253
REMARK  104  A    between atoms: _252  and  _255
REMARK  105  A    between atoms: _255  and  _256
REMARK  106  A    between atoms: _258  and  _260
REMARK  107  A    between atoms: _260  and  _261
REMARK  108  A    between atoms: _264  and  _266
REMARK  109  A    between atoms: _266  and  _267
REMARK  110  A    between atoms: _270  and  _272
REMARK  111  A    between atoms: _272  and  _273
REMARK  112  A    between atoms: _272  and  _275
REMARK  113  A    between atoms: _275  and  _276
REMARK  114  A    between atoms: _276  and  _277
REMARK  115  A    between atoms: _277  and  _278
REMARK  116  A    between atoms: _287  and  _289
REMARK  117  A    between atoms: _289  and  _290
REMARK  118  A    between atoms: _289  and  _292
REMARK  119  A    between atoms: _292  and  _293
REMARK  120  A    between atoms: _298  and  _299
REMARK  121  A    between atoms: _301  and  _303
REMARK  122  A    between atoms: _303  and  _304
REMARK  123  A    between atoms: _303  and  _306
REMARK  124  A    between atoms: _306  and  _307
REMARK  125  A    between atoms: _312  and  _314
REMARK  126  A    between atoms: _314  and  _315
REMARK  127  A    between atoms: _314  and  _317
REMARK  128  A    between atoms: _317  and  _318
REMARK  129  A    between atoms: _318  and  _319
REMARK  130  A    between atoms: _325  and  _326
REMARK  131  A    between atoms: _331  and  _333
REMARK  132  A    between atoms: _333  and  _334
REMARK  133  A    between atoms: _333  and  _336
REMARK  134  A    between atoms: _336  and  _337
REMARK  135  A    between atoms: _342  and  _344
REMARK  136  A    between atoms: _344  and  _345
REMARK  137  A    between atoms: _344  and  _347
REMARK  138  A    between atoms: _347  and  _348
REMARK  139  A    between atoms: _348  and  _349
REMARK  140  A    between atoms: _352  and  _354
REMARK  141  A    between atoms: _354  and  _355
REMARK  142  A    between atoms: _354  and  _357
REMARK  143  A    between atoms: _357  and  _358
REMARK  144  A    between atoms: _360  and  _362
REMARK  145  A    between atoms: _362  and  _363
REMARK  146  A    between atoms: _362  and  _365
REMARK  147  A    between atoms: _365  and  _366
REMARK  148  A    between atoms: _369  and  _371
REMARK  149  A    between atoms: _371  and  _372
REMARK  150  A    between atoms: _371  and  _374
REMARK  151  A    between atoms: _374  and  _375
REMARK  152  A    between atoms: _377  and  _379
REMARK  153  A    between atoms: _379  and  _380
REMARK  154  A    between atoms: _379  and  _382
REMARK  155  A    between atoms: _382  and  _383
REMARK  156  A    between atoms: _386  and  _388
REMARK  157  A    between atoms: _388  and  _389
REMARK  158  A    between atoms: _388  and  _391
REMARK  159  A    between atoms: _391  and  _392
REMARK  160  A    between atoms: _395  and  _397
REMARK  161  A    between atoms: _397  and  _398
REMARK  162  A    between atoms: _397  and  _400
REMARK  163  A    between atoms: _400  and  _401
REMARK  164  A    between atoms: _401  and  _402
REMARK  165  A    between atoms: _407  and  _409
REMARK  166  A    between atoms: _409  and  _410
REMARK  167  A    between atoms: _409  and  _412
REMARK  168  A    between atoms: _412  and  _413
REMARK  169  A    between atoms: _419  and  _421
REMARK  170  A    between atoms: _421  and  _422
REMARK  171  A    between atoms: _421  and  _424
REMARK  172  A    between atoms: _426  and  _428
REMARK  173  A    between atoms: _428  and  _429
REMARK  174  A    between atoms: _432  and  _434
REMARK  175  A    between atoms: _434  and  _435
REMARK  176  A    between atoms: _437  and  _439
REMARK  177  A    between atoms: _439  and  _440
REMARK  178  A    between atoms: _442  and  _444
REMARK  179  A    between atoms: _444  and  _445
REMARK  180  A    between atoms: _444  and  _447
REMARK  181  A    between atoms: _447  and  _448
REMARK  182  A    between atoms: _451  and  _453
REMARK  183  A    between atoms: _453  and  _454
REMARK  184  A    between atoms: _456  and  _458
REMARK  185  A    between atoms: _458  and  _459
REMARK  186  A    between atoms: _458  and  _461
REMARK  187  A    between atoms: _461  and  _462
REMARK  188  A    between atoms: _468  and  _470
REMARK  189  A    between atoms: _470  and  _471
REMARK  190  A    between atoms: _470  and  _473
REMARK  191  A    between atoms: _476  and  _478
REMARK  192  A    between atoms: _478  and  _479
REMARK  193  A    between atoms: _478  and  _481
REMARK  194  A    between atoms: _481  and  _482
REMARK  195  A    between atoms: _485  and  _487
REMARK  196  A    between atoms: _487  and  _488
REMARK  197  A    between atoms: _490  and  _492
REMARK  198  A    between atoms: _492  and  _493
REMARK  199  A    between atoms: _492  and  _495
REMARK  200  A    between atoms: _495  and  _496
REMARK  201  A    between atoms: _496  and  _497
REMARK  202  A    between atoms: _497  and  MG_734
REMARK  203  A    between atoms: _499  and  _501
REMARK  204  A    between atoms: _501  and  _502
REMARK  205  A    between atoms: _504  and  _506
REMARK  206  A    between atoms: _506  and  _507
REMARK  207  A    between atoms: _506  and  _509
REMARK  208  A    between atoms: _509  and  _510
REMARK  209  A    between atoms: _512  and  _514
REMARK  210  A    between atoms: _514  and  _515
REMARK  211  A    between atoms: _518  and  _520
REMARK  212  A    between atoms: _520  and  _521
REMARK  213  A    between atoms: _520  and  _523
REMARK  214  A    between atoms: _523  and  _524
REMARK  215  A    between atoms: _529  and  _531
REMARK  216  A    between atoms: _531  and  _532
REMARK  217  A    between atoms: _531  and  _534
REMARK  218  A    between atoms: _534  and  _535
REMARK  219  A    between atoms: _540  and  _541
REMARK  220  A    between atoms: _543  and  _545
REMARK  221  A    between atoms: _545  and  _546
REMARK  222  A    between atoms: _545  and  _548
REMARK  223  A    between atoms: _548  and  _549
REMARK  224  A    between atoms: _552  and  _554
REMARK  225  A    between atoms: _554  and  _555
REMARK  226  A    between atoms: _554  and  _557
REMARK  227  A    between atoms: _557  and  _558
REMARK  228  A    between atoms: _558  and  _559
REMARK  229  A    between atoms: _561  and  _563
REMARK  230  A    between atoms: _563  and  _564
REMARK  231  A    between atoms: _563  and  _566
REMARK  232  A    between atoms: _566  and  _567
REMARK  233  A    between atoms: _572  and  _574
REMARK  234  A    between atoms: _574  and  _575
REMARK  235  A    between atoms: _574  and  _577
REMARK  236  A    between atoms: _577  and  _578
REMARK  237  A    between atoms: _583  and  _585
REMARK  238  A    between atoms: _585  and  _586
REMARK  239  A    between atoms: _588  and  _590
REMARK  240  A    between atoms: _590  and  _591
REMARK  241  A    between atoms: _590  and  _593
REMARK  242  A    between atoms: _591  and  _592
REMARK  243  A    between atoms: _591  and  _597
REMARK  244  A    between atoms: _592  and  MG_734
REMARK  245  A    between atoms: _593  and  _594
REMARK  246  A    between atoms: _597  and  _599
REMARK  247  A    between atoms: _599  and  _600
REMARK  248  A    between atoms: _599  and  _602
REMARK  249  A    between atoms: _602  and  _603
REMARK  250  A    between atoms: _608  and  _609
REMARK  251  A    between atoms: _611  and  _613
REMARK  252  A    between atoms: _613  and  _614
REMARK  253  A    between atoms: _616  and  _618
REMARK  254  A    between atoms: _618  and  _619
REMARK  255  A    between atoms: _622  and  _624
REMARK  256  A    between atoms: _624  and  _625
REMARK  257  A    between atoms: _624  and  _627
REMARK  258  A    between atoms: _627  and  _628
REMARK  259  A    between atoms: _631  and  _633
REMARK  260  A    between atoms: _633  and  _634
REMARK  261  A    between atoms: _633  and  _636
REMARK  262  A    between atoms: _636  and  _637
REMARK  263  A    between atoms: _637  and  _638
REMARK  264  A    between atoms: _638  and  _639
REMARK  265  A    between atoms: _648  and  _650
REMARK  266  A    between atoms: _650  and  _651
REMARK  267  A    between atoms: _650  and  _653
REMARK  268  A    between atoms: _653  and  _654
REMARK  269  A    between atoms: _664  and  _666
REMARK  270  A    between atoms: _666  and  _667
REMARK  271  A    between atoms: _666  and  _669
REMARK  272  A    between atoms: _669  and  _670
REMARK  273  A    between atoms: _676  and  _678
REMARK  274  A    between atoms: _678  and  _679
REMARK  275  A    between atoms: _681  and  _683
REMARK  276  A    between atoms: _683  and  _684
REMARK  277  A    between atoms: _683  and  _686
REMARK  278  A    between atoms: _686  and  _687
REMARK  279  A    between atoms: _690  and  _692
REMARK  280  A    between atoms: _692  and  _693
REMARK  281  A    between atoms: _692  and  _695
REMARK  282  A    between atoms: _698  and  _700
REMARK  283  A    between atoms: _700  and  _701
REMARK  284  A    between atoms: _700  and  _703
REMARK  285  A    between atoms: _703  and  _704
REMARK  286  A    between atoms: _710  and  _712
REMARK  287  A    between atoms: _712  and  _713
REMARK  288  A    between atoms: _712  and  _715
REMARK  289  A    between atoms: _715  and  _716
REMARK  290  A    between atoms: _719  and  _721
REMARK  291  A    between atoms: _721  and  _722
REMARK  292  A    between atoms: _721  and  _724
REMARK  293  A    between atoms: _728  and  _729
REMARK                            x       y       z     vdW  Elec       q    Type
REMARK                         _______ _______ _______ _____ _____    ______ ____
ROOT
ATOM      1  O   HOH     1      70.095  54.282 155.016  0.00  0.00    +0.000 OA
ENDROOT
TORSDOF 0
REMARK  Name = ../refined-set-2016/3f6e/3f6e_pocket.pdb
REMARK  293 active torsions:
REMARK  status: ('A' for Active; 'I' for Inactive)
REMARK    1  A    between atoms: _1  and  _3
REMARK    2  A    between atoms: _3  and  _4
REMARK    3  A    between atoms: _3  and  _6
REMARK    4  A    between atoms: _6  and  _7
REMARK    5  A    between atoms: _13  and  _14
REMARK    6  A    between atoms: _19  and  _21
REMARK    7  A    between atoms: _21  and  _22
REMARK    8  A    between atoms: _24  and  _26
REMARK    9  A    between atoms: _26  and  _27
REMARK   10  A    between atoms: _26  and  _29
REMARK   11  A    between atoms: _29  and  _30
REMARK   12  A    between atoms: _32  and  _34
REMARK   13  A    between atoms: _34  and  _35
REMARK   14  A    between atoms: _34  and  _37
REMARK   15  A    between atoms: _37  and  _38
REMARK   16  A    between atoms: _43  and  _45
REMARK   17  A    between atoms: _45  and  _46
REMARK   18  A    between atoms: _45  and  _48
REMARK   19  A    between atoms: _48  and  _49
REMARK   20  A    between atoms: _49  and  _50
REMARK   21  A    between atoms: _53  and  _55
REMARK   22  A    between atoms: _55  and  _56
REMARK   23  A    between atoms: _55  and  _58
REMARK   24  A    between atoms: _58  and  _59
REMARK   25  A    between atoms: _62  and  _64
REMARK   26  A    between atoms: _64  and  _65
REMARK   27  A    between atoms: _64  and  _67
REMARK   28  A    between atoms: _67  and  _68
REMARK   29  A    between atoms: _71  and  _73
REMARK   30  A    between atoms: _73  and  _74
REMARK   31  A    between atoms: _77  and  _79
REMARK   32  A    between atoms: _79  and  _80
REMARK   33  A    between atoms: _79  and  _82
REMARK   34  A    between atoms: _82  and  _83
REMARK   35  A    between atoms: _86  and  _88
REMARK   36  A    between atoms: _88  and  _89
REMARK   37  A    between atoms: _88  and  _91
REMARK   38  A    between atoms: _91  and  _92
REMARK   39  A    between atoms: _92  and  _93
REMARK   40  A    between atoms: _98  and  _100
REMARK   41  A    between atoms: _100  and  _101
REMARK   42  A    between atoms: _100  and  _103
REMARK   43  A    between atoms: _103  and  _104
REMARK   44  A    between atoms: _104  and  _105
REMARK   45  A    between atoms: _108  and  _110
REMARK   46  A    between atoms: _110  and  _111
REMARK   47  A    between atoms: _114  and  _116
REMARK   48  A    between atoms: _116  and  _117
REMARK   49  A    between atoms: _116  and  _119
REMARK   50  A    between atoms: _119  and  _120
REMARK   51  A    between atoms: _123  and  _125
REMARK   52  A    between atoms: _125  and  _126
REMARK   53  A    between atoms: _125  and  _128
REMARK   54  A    between atoms: _128  and  _129
REMARK   55  A    between atoms: _134  and  _136
REMARK   56  A    between atoms: _136  and  _137
REMARK   57  A    between atoms: _136  and  _139
REMARK   58  A    between atoms: _139  and  _140
REMARK   59  A    between atoms: _142  and  _144
REMARK   60  A    between atoms: _144  and  _145
REMARK   61  A    between atoms: _148  and  _150
REMARK   62  A    between atoms: _150  and  _151
REMARK   63  A    between atoms: _154  and  _156
REMARK   64  A    between atoms: _156  and  _157
REMARK   65  A    between atoms: _159  and  _161
REMARK   66  A    between atoms: _161  and  _162
REMARK   67  A    between atoms: _161  and  _164
REMARK   68  A    between atoms: _164  and  _165
REMARK   69  A    between atoms: _168  and  _170
REMARK   70  A    between atoms: _170  and  _171
REMARK   71  A    between atoms: _173  and  _175
REMARK   72  A    between atoms: _175  and  _176
REMARK   73  A    between atoms: _175  and  _178
REMARK   74  A    between atoms: _178  and  _179
REMARK   75  A    between atoms: _184  and  _186
REMARK   76  A    between atoms: _186  and  _187
REMARK   77  A    between atoms: _190  and  _192
REMARK   78  A    between atoms: _192  and  _193
REMARK   79  A    between atoms: _192  and  _195
REMARK   80  A    between atoms: _195  and  _196
REMARK   81  A    between atoms: _196  and  _197
REMARK   82  A    between atoms: _202  and  _204
REMARK   83  A    between atoms: _204  and  _205
REMARK   84  A    between atoms: _204  and  _207
REMARK   85  A    between atoms: _207  and  _208
REMARK   86  A    between atoms: _211  and  _213
REMARK   87  A    between atoms: _213  and  _214
REMARK   88  A    between atoms: _213  and  _216
REMARK   89  A    between atoms: _216  and  _217
REMARK   90  A    between atoms: _220  and  _222
REMARK   91  A    between atoms: _222  and  _223
REMARK   92  A    between atoms: _225  and  _227
REMARK   93  A    between atoms: _227  and  _228
REMARK   94  A    between atoms: _231  and  _233
REMARK   95  A    between atoms: _233  and  _234
REMARK   96  A    between atoms: _233  and  _236
REMARK   97  A    between atoms: _236  and  _237
REMARK   98  A    between atoms: _239  and  _241
REMARK   99  A    between atoms: _241  and  _242
REMARK  100  A    between atoms: _241  and  _244
REMARK  101  A    between atoms: _244  and  _245
REMARK  102  A    between atoms: _250  and  _252
REMARK  103  A    between atoms: _252  and  _253
REMARK  104  A    between atoms: _252  and  _255
REMARK  105  A    between atoms: _255  and  _256
REMARK  106  A    between atoms: _258  and  _260
REMARK  107  A    between atoms: _260  and  _261
REMARK  108  A    between atoms: _264  and  _266
REMARK  109  A    between atoms: _266  and  _267
REMARK  110  A    between atoms: _270  and  _272
REMARK  111  A    between atoms: _272  and  _273
REMARK  112  A    between atoms: _272  and  _275
REMARK  113  A    between atoms: _275  and  _276
REMARK  114  A    between atoms: _276  and  _277
REMARK  115  A    between atoms: _277  and  _278
REMARK  116  A    between atoms: _287  and  _289
REMARK  117  A    between atoms: _289  and  _290
REMARK  118  A    between atoms: _289  and  _292
REMARK  119  A    between atoms: _292  and  _293
REMARK  120  A    between atoms: _298  and  _299
REMARK  121  A    between atoms: _301  and  _303
REMARK  122  A    between atoms: _303  and  _304
REMARK  123  A    between atoms: _303  and  _306
REMARK  124  A    between atoms: _306  and  _307
REMARK  125  A    between atoms: _312  and  _314
REMARK  126  A    between atoms: _314  and  _315
REMARK  127  A    between atoms: _314  and  _317
REMARK  128  A    between atoms: _317  and  _318
REMARK  129  A    between atoms: _318  and  _319
REMARK  130  A    between atoms: _325  and  _326
REMARK  131  A    between atoms: _331  and  _333
REMARK  132  A    between atoms: _333  and  _334
REMARK  133  A    between atoms: _333  and  _336
REMARK  134  A    between atoms: _336  and  _337
REMARK  135  A    between atoms: _342  and  _344
REMARK  136  A    between atoms: _344  and  _345
REMARK  137  A    between atoms: _344  and  _347
REMARK  138  A    between atoms: _347  and  _348
REMARK  139  A    between atoms: _348  and  _349
REMARK  140  A    between atoms: _352  and  _354
REMARK  141  A    between atoms: _354  and  _355
REMARK  142  A    between atoms: _354  and  _357
REMARK  143  A    between atoms: _357  and  _358
REMARK  144  A    between atoms: _360  and  _362
REMARK  145  A    between atoms: _362  and  _363
REMARK  146  A    between atoms: _362  and  _365
REMARK  147  A    between atoms: _365  and  _366
REMARK  148  A    between atoms: _369  and  _371
REMARK  149  A    between atoms: _371  and  _372
REMARK  150  A    between atoms: _371  and  _374
REMARK  151  A    between atoms: _374  and  _375
REMARK  152  A    between atoms: _377  and  _379
REMARK  153  A    between atoms: _379  and  _380
REMARK  154  A    between atoms: _379  and  _382
REMARK  155  A    between atoms: _382  and  _383
REMARK  156  A    between atoms: _386  and  _388
REMARK  157  A    between atoms: _388  and  _389
REMARK  158  A    between atoms: _388  and  _391
REMARK  159  A    between atoms: _391  and  _392
REMARK  160  A    between atoms: _395  and  _397
REMARK  161  A    between atoms: _397  and  _398
REMARK  162  A    between atoms: _397  and  _400
REMARK  163  A    between atoms: _400  and  _401
REMARK  164  A    between atoms: _401  and  _402
REMARK  165  A    between atoms: _407  and  _409
REMARK  166  A    between atoms: _409  and  _410
REMARK  167  A    between atoms: _409  and  _412
REMARK  168  A    between atoms: _412  and  _413
REMARK  169  A    between atoms: _419  and  _421
REMARK  170  A    between atoms: _421  and  _422
REMARK  171  A    between atoms: _421  and  _424
REMARK  172  A    between atoms: _426  and  _428
REMARK  173  A    between atoms: _428  and  _429
REMARK  174  A    between atoms: _432  and  _434
REMARK  175  A    between atoms: _434  and  _435
REMARK  176  A    between atoms: _437  and  _439
REMARK  177  A    between atoms: _439  and  _440
REMARK  178  A    between atoms: _442  and  _444
REMARK  179  A    between atoms: _444  and  _445
REMARK  180  A    between atoms: _444  and  _447
REMARK  181  A    between atoms: _447  and  _448
REMARK  182  A    between atoms: _451  and  _453
REMARK  183  A    between atoms: _453  and  _454
REMARK  184  A    between atoms: _456  and  _458
REMARK  185  A    between atoms: _458  and  _459
REMARK  186  A    between atoms: _458  and  _461
REMARK  187  A    between atoms: _461  and  _462
REMARK  188  A    between atoms: _468  and  _470
REMARK  189  A    between atoms: _470  and  _471
REMARK  190  A    between atoms: _470  and  _473
REMARK  191  A    between atoms: _476  and  _478
REMARK  192  A    between atoms: _478  and  _479
REMARK  193  A    between atoms: _478  and  _481
REMARK  194  A    between atoms: _481  and  _482
REMARK  195  A    between atoms: _485  and  _487
REMARK  196  A    between atoms: _487  and  _488
REMARK  197  A    between atoms: _490  and  _492
REMARK  198  A    between atoms: _492  and  _493
REMARK  199  A    between atoms: _492  and  _495
REMARK  200  A    between atoms: _495  and  _496
REMARK  201  A    between atoms: _496  and  _497
REMARK  202  A    between atoms: _497  and  MG_734
REMARK  203  A    between atoms: _499  and  _501
REMARK  204  A    between atoms: _501  and  _502
REMARK  205  A    between atoms: _504  and  _506
REMARK  206  A    between atoms: _506  and  _507
REMARK  207  A    between atoms: _506  and  _509
REMARK  208  A    between atoms: _509  and  _510
REMARK  209  A    between atoms: _512  and  _514
REMARK  210  A    between atoms: _514  and  _515
REMARK  211  A    between atoms: _518  and  _520
REMARK  212  A    between atoms: _520  and  _521
REMARK  213  A    between atoms: _520  and  _523
REMARK  214  A    between atoms: _523  and  _524
REMARK  215  A    between atoms: _529  and  _531
REMARK  216  A    between atoms: _531  and  _532
REMARK  217  A    between atoms: _531  and  _534
REMARK  218  A    between atoms: _534  and  _535
REMARK  219  A    between atoms: _540  and  _541
REMARK  220  A    between atoms: _543  and  _545
REMARK  221  A    between atoms: _545  and  _546
REMARK  222  A    between atoms: _545  and  _548
REMARK  223  A    between atoms: _548  and  _549
REMARK  224  A    between atoms: _552  and  _554
REMARK  225  A    between atoms: _554  and  _555
REMARK  226  A    between atoms: _554  and  _557
REMARK  227  A    between atoms: _557  and  _558
REMARK  228  A    between atoms: _558  and  _559
REMARK  229  A    between atoms: _561  and  _563
REMARK  230  A    between atoms: _563  and  _564
REMARK  231  A    between atoms: _563  and  _566
REMARK  232  A    between atoms: _566  and  _567
REMARK  233  A    between atoms: _572  and  _574
REMARK  234  A    between atoms: _574  and  _575
REMARK  235  A    between atoms: _574  and  _577
REMARK  236  A    between atoms: _577  and  _578
REMARK  237  A    between atoms: _583  and  _585
REMARK  238  A    between atoms: _585  and  _586
REMARK  239  A    between atoms: _588  and  _590
REMARK  240  A    between atoms: _590  and  _591
REMARK  241  A    between atoms: _590  and  _593
REMARK  242  A    between atoms: _591  and  _592
REMARK  243  A    between atoms: _591  and  _597
REMARK  244  A    between atoms: _592  and  MG_734
REMARK  245  A    between atoms: _593  and  _594
REMARK  246  A    between atoms: _597  and  _599
REMARK  247  A    between atoms: _599  and  _600
REMARK  248  A    between atoms: _599  and  _602
REMARK  249  A    between atoms: _602  and  _603
REMARK  250  A    between atoms: _608  and  _609
REMARK  251  A    between atoms: _611  and  _613
REMARK  252  A    between atoms: _613  and  _614
REMARK  253  A    between atoms: _616  and  _618
REMARK  254  A    between atoms: _618  and  _619
REMARK  255  A    between atoms: _622  and  _624
REMARK  256  A    between atoms: _624  and  _625
REMARK  257  A    between atoms: _624  and  _627
REMARK  258  A    between atoms: _627  and  _628
REMARK  259  A    between atoms: _631  and  _633
REMARK  260  A    between atoms: _633  and  _634
REMARK  261  A    between atoms: _633  and  _636
REMARK  262  A    between atoms: _636  and  _637
REMARK  263  A    between atoms: _637  and  _638
REMARK  264  A    between atoms: _638  and  _639
REMARK  265  A    between atoms: _648  and  _650
REMARK  266  A    between atoms: _650  and  _651
REMARK  267  A    between atoms: _650  and  _653
REMARK  268  A    between atoms: _653  and  _654
REMARK  269  A    between atoms: _664  and  _666
REMARK  270  A    between atoms: _666  and  _667
REMARK  271  A    between atoms: _666  and  _669
REMARK  272  A    between atoms: _669  and  _670
REMARK  273  A    between atoms: _676  and  _678
REMARK  274  A    between atoms: _678  and  _679
REMARK  275  A    between atoms: _681  and  _683
REMARK  276  A    between atoms: _683  and  _684
REMARK  277  A    between atoms: _683  and  _686
REMARK  278  A    between atoms: _686  and  _687
REMARK  279  A    between atoms: _690  and  _692
REMARK  280  A    between atoms: _692  and  _693
REMARK  281  A    between atoms: _692  and  _695
REMARK  282  A    between atoms: _698  and  _700
REMARK  283  A    between atoms: _700  and  _701
REMARK  284  A    between atoms: _700  and  _703
REMARK  285  A    between atoms: _703  and  _704
REMARK  286  A    between atoms: _710  and  _712
REMARK  287  A    between atoms: _712  and  _713
REMARK  288  A    between atoms: _712  and  _715
REMARK  289  A    between atoms: _715  and  _716
REMARK  290  A    between atoms: _719  and  _721
REMARK  291  A    between atoms: _721  and  _722
REMARK  292  A    between atoms: _721  and  _724
REMARK  293  A    between atoms: _728  and  _729
REMARK                            x       y       z     vdW  Elec       q    Type
REMARK                         _______ _______ _______ _____ _____    ______ ____
ROOT
ATOM      1  O   HOH     1      58.536  59.996 165.787  0.00  0.00    +0.000 OA
ENDROOT
TORSDOF 0
REMARK  Name = ../refined-set-2016/3f6e/3f6e_pocket.pdb
REMARK  293 active torsions:
REMARK  status: ('A' for Active; 'I' for Inactive)
REMARK    1  A    between atoms: _1  and  _3
REMARK    2  A    between atoms: _3  and  _4
REMARK    3  A    between atoms: _3  and  _6
REMARK    4  A    between atoms: _6  and  _7
REMARK    5  A    between atoms: _13  and  _14
REMARK    6  A    between atoms: _19  and  _21
REMARK    7  A    between atoms: _21  and  _22
REMARK    8  A    between atoms: _24  and  _26
REMARK    9  A    between atoms: _26  and  _27
REMARK   10  A    between atoms: _26  and  _29
REMARK   11  A    between atoms: _29  and  _30
REMARK   12  A    between atoms: _32  and  _34
REMARK   13  A    between atoms: _34  and  _35
REMARK   14  A    between atoms: _34  and  _37
REMARK   15  A    between atoms: _37  and  _38
REMARK   16  A    between atoms: _43  and  _45
REMARK   17  A    between atoms: _45  and  _46
REMARK   18  A    between atoms: _45  and  _48
REMARK   19  A    between atoms: _48  and  _49
REMARK   20  A    between atoms: _49  and  _50
REMARK   21  A    between atoms: _53  and  _55
REMARK   22  A    between atoms: _55  and  _56
REMARK   23  A    between atoms: _55  and  _58
REMARK   24  A    between atoms: _58  and  _59
REMARK   25  A    between atoms: _62  and  _64
REMARK   26  A    between atoms: _64  and  _65
REMARK   27  A    between atoms: _64  and  _67
REMARK   28  A    between atoms: _67  and  _68
REMARK   29  A    between atoms: _71  and  _73
REMARK   30  A    between atoms: _73  and  _74
REMARK   31  A    between atoms: _77  and  _79
REMARK   32  A    between atoms: _79  and  _80
REMARK   33  A    between atoms: _79  and  _82
REMARK   34  A    between atoms: _82  and  _83
REMARK   35  A    between atoms: _86  and  _88
REMARK   36  A    between atoms: _88  and  _89
REMARK   37  A    between atoms: _88  and  _91
REMARK   38  A    between atoms: _91  and  _92
REMARK   39  A    between atoms: _92  and  _93
REMARK   40  A    between atoms: _98  and  _100
REMARK   41  A    between atoms: _100  and  _101
REMARK   42  A    between atoms: _100  and  _103
REMARK   43  A    between atoms: _103  and  _104
REMARK   44  A    between atoms: _104  and  _105
REMARK   45  A    between atoms: _108  and  _110
REMARK   46  A    between atoms: _110  and  _111
REMARK   47  A    between atoms: _114  and  _116
REMARK   48  A    between atoms: _116  and  _117
REMARK   49  A    between atoms: _116  and  _119
REMARK   50  A    between atoms: _119  and  _120
REMARK   51  A    between atoms: _123  and  _125
REMARK   52  A    between atoms: _125  and  _126
REMARK   53  A    between atoms: _125  and  _128
REMARK   54  A    between atoms: _128  and  _129
REMARK   55  A    between atoms: _134  and  _136
REMARK   56  A    between atoms: _136  and  _137
REMARK   57  A    between atoms: _136  and  _139
REMARK   58  A    between atoms: _139  and  _140
REMARK   59  A    between atoms: _142  and  _144
REMARK   60  A    between atoms: _144  and  _145
REMARK   61  A    between atoms: _148  and  _150
REMARK   62  A    between atoms: _150  and  _151
REMARK   63  A    between atoms: _154  and  _156
REMARK   64  A    between atoms: _156  and  _157
REMARK   65  A    between atoms: _159  and  _161
REMARK   66  A    between atoms: _161  and  _162
REMARK   67  A    between atoms: _161  and  _164
REMARK   68  A    between atoms: _164  and  _165
REMARK   69  A    between atoms: _168  and  _170
REMARK   70  A    between atoms: _170  and  _171
REMARK   71  A    between atoms: _173  and  _175
REMARK   72  A    between atoms: _175  and  _176
REMARK   73  A    between atoms: _175  and  _178
REMARK   74  A    between atoms: _178  and  _179
REMARK   75  A    between atoms: _184  and  _186
REMARK   76  A    between atoms: _186  and  _187
REMARK   77  A    between atoms: _190  and  _192
REMARK   78  A    between atoms: _192  and  _193
REMARK   79  A    between atoms: _192  and  _195
REMARK   80  A    between atoms: _195  and  _196
REMARK   81  A    between atoms: _196  and  _197
REMARK   82  A    between atoms: _202  and  _204
REMARK   83  A    between atoms: _204  and  _205
REMARK   84  A    between atoms: _204  and  _207
REMARK   85  A    between atoms: _207  and  _208
REMARK   86  A    between atoms: _211  and  _213
REMARK   87  A    between atoms: _213  and  _214
REMARK   88  A    between atoms: _213  and  _216
REMARK   89  A    between atoms: _216  and  _217
REMARK   90  A    between atoms: _220  and  _222
REMARK   91  A    between atoms: _222  and  _223
REMARK   92  A    between atoms: _225  and  _227
REMARK   93  A    between atoms: _227  and  _228
REMARK   94  A    between atoms: _231  and  _233
REMARK   95  A    between atoms: _233  and  _234
REMARK   96  A    between atoms: _233  and  _236
REMARK   97  A    between atoms: _236  and  _237
REMARK   98  A    between atoms: _239  and  _241
REMARK   99  A    between atoms: _241  and  _242
REMARK  100  A    between atoms: _241  and  _244
REMARK  101  A    between atoms: _244  and  _245
REMARK  102  A    between atoms: _250  and  _252
REMARK  103  A    between atoms: _252  and  _253
REMARK  104  A    between atoms: _252  and  _255
REMARK  105  A    between atoms: _255  and  _256
REMARK  106  A    between atoms: _258  and  _260
REMARK  107  A    between atoms: _260  and  _261
REMARK  108  A    between atoms: _264  and  _266
REMARK  109  A    between atoms: _266  and  _267
REMARK  110  A    between atoms: _270  and  _272
REMARK  111  A    between atoms: _272  and  _273
REMARK  112  A    between atoms: _272  and  _275
REMARK  113  A    between atoms: _275  and  _276
REMARK  114  A    between atoms: _276  and  _277
REMARK  115  A    between atoms: _277  and  _278
REMARK  116  A    between atoms: _287  and  _289
REMARK  117  A    between atoms: _289  and  _290
REMARK  118  A    between atoms: _289  and  _292
REMARK  119  A    between atoms: _292  and  _293
REMARK  120  A    between atoms: _298  and  _299
REMARK  121  A    between atoms: _301  and  _303
REMARK  122  A    between atoms: _303  and  _304
REMARK  123  A    between atoms: _303  and  _306
REMARK  124  A    between atoms: _306  and  _307
REMARK  125  A    between atoms: _312  and  _314
REMARK  126  A    between atoms: _314  and  _315
REMARK  127  A    between atoms: _314  and  _317
REMARK  128  A    between atoms: _317  and  _318
REMARK  129  A    between atoms: _318  and  _319
REMARK  130  A    between atoms: _325  and  _326
REMARK  131  A    between atoms: _331  and  _333
REMARK  132  A    between atoms: _333  and  _334
REMARK  133  A    between atoms: _333  and  _336
REMARK  134  A    between atoms: _336  and  _337
REMARK  135  A    between atoms: _342  and  _344
REMARK  136  A    between atoms: _344  and  _345
REMARK  137  A    between atoms: _344  and  _347
REMARK  138  A    between atoms: _347  and  _348
REMARK  139  A    between atoms: _348  and  _349
REMARK  140  A    between atoms: _352  and  _354
REMARK  141  A    between atoms: _354  and  _355
REMARK  142  A    between atoms: _354  and  _357
REMARK  143  A    between atoms: _357  and  _358
REMARK  144  A    between atoms: _360  and  _362
REMARK  145  A    between atoms: _362  and  _363
REMARK  146  A    between atoms: _362  and  _365
REMARK  147  A    between atoms: _365  and  _366
REMARK  148  A    between atoms: _369  and  _371
REMARK  149  A    between atoms: _371  and  _372
REMARK  150  A    between atoms: _371  and  _374
REMARK  151  A    between atoms: _374  and  _375
REMARK  152  A    between atoms: _377  and  _379
REMARK  153  A    between atoms: _379  and  _380
REMARK  154  A    between atoms: _379  and  _382
REMARK  155  A    between atoms: _382  and  _383
REMARK  156  A    between atoms: _386  and  _388
REMARK  157  A    between atoms: _388  and  _389
REMARK  158  A    between atoms: _388  and  _391
REMARK  159  A    between atoms: _391  and  _392
REMARK  160  A    between atoms: _395  and  _397
REMARK  161  A    between atoms: _397  and  _398
REMARK  162  A    between atoms: _397  and  _400
REMARK  163  A    between atoms: _400  and  _401
REMARK  164  A    between atoms: _401  and  _402
REMARK  165  A    between atoms: _407  and  _409
REMARK  166  A    between atoms: _409  and  _410
REMARK  167  A    between atoms: _409  and  _412
REMARK  168  A    between atoms: _412  and  _413
REMARK  169  A    between atoms: _419  and  _421
REMARK  170  A    between atoms: _421  and  _422
REMARK  171  A    between atoms: _421  and  _424
REMARK  172  A    between atoms: _426  and  _428
REMARK  173  A    between atoms: _428  and  _429
REMARK  174  A    between atoms: _432  and  _434
REMARK  175  A    between atoms: _434  and  _435
REMARK  176  A    between atoms: _437  and  _439
REMARK  177  A    between atoms: _439  and  _440
REMARK  178  A    between atoms: _442  and  _444
REMARK  179  A    between atoms: _444  and  _445
REMARK  180  A    between atoms: _444  and  _447
REMARK  181  A    between atoms: _447  and  _448
REMARK  182  A    between atoms: _451  and  _453
REMARK  183  A    between atoms: _453  and  _454
REMARK  184  A    between atoms: _456  and  _458
REMARK  185  A    between atoms: _458  and  _459
REMARK  186  A    between atoms: _458  and  _461
REMARK  187  A    between atoms: _461  and  _462
REMARK  188  A    between atoms: _468  and  _470
REMARK  189  A    between atoms: _470  and  _471
REMARK  190  A    between atoms: _470  and  _473
REMARK  191  A    between atoms: _476  and  _478
REMARK  192  A    between atoms: _478  and  _479
REMARK  193  A    between atoms: _478  and  _481
REMARK  194  A    between atoms: _481  and  _482
REMARK  195  A    between atoms: _485  and  _487
REMARK  196  A    between atoms: _487  and  _488
REMARK  197  A    between atoms: _490  and  _492
REMARK  198  A    between atoms: _492  and  _493
REMARK  199  A    between atoms: _492  and  _495
REMARK  200  A    between atoms: _495  and  _496
REMARK  201  A    between atoms: _496  and  _497
REMARK  202  A    between atoms: _497  and  MG_734
REMARK  203  A    between atoms: _499  and  _501
REMARK  204  A    between atoms: _501  and  _502
REMARK  205  A    between atoms: _504  and  _506
REMARK  206  A    between atoms: _506  and  _507
REMARK  207  A    between atoms: _506  and  _509
REMARK  208  A    between atoms: _509  and  _510
REMARK  209  A    between atoms: _512  and  _514
REMARK  210  A    between atoms: _514  and  _515
REMARK  211  A    between atoms: _518  and  _520
REMARK  212  A    between atoms: _520  and  _521
REMARK  213  A    between atoms: _520  and  _523
REMARK  214  A    between atoms: _523  and  _524
REMARK  215  A    between atoms: _529  and  _531
REMARK  216  A    between atoms: _531  and  _532
REMARK  217  A    between atoms: _531  and  _534
REMARK  218  A    between atoms: _534  and  _535
REMARK  219  A    between atoms: _540  and  _541
REMARK  220  A    between atoms: _543  and  _545
REMARK  221  A    between atoms: _545  and  _546
REMARK  222  A    between atoms: _545  and  _548
REMARK  223  A    between atoms: _548  and  _549
REMARK  224  A    between atoms: _552  and  _554
REMARK  225  A    between atoms: _554  and  _555
REMARK  226  A    between atoms: _554  and  _557
REMARK  227  A    between atoms: _557  and  _558
REMARK  228  A    between atoms: _558  and  _559
REMARK  229  A    between atoms: _561  and  _563
REMARK  230  A    between atoms: _563  and  _564
REMARK  231  A    between atoms: _563  and  _566
REMARK  232  A    between atoms: _566  and  _567
REMARK  233  A    between atoms: _572  and  _574
REMARK  234  A    between atoms: _574  and  _575
REMARK  235  A    between atoms: _574  and  _577
REMARK  236  A    between atoms: _577  and  _578
REMARK  237  A    between atoms: _583  and  _585
REMARK  238  A    between atoms: _585  and  _586
REMARK  239  A    between atoms: _588  and  _590
REMARK  240  A    between atoms: _590  and  _591
REMARK  241  A    between atoms: _590  and  _593
REMARK  242  A    between atoms: _591  and  _592
REMARK  243  A    between atoms: _591  and  _597
REMARK  244  A    between atoms: _592  and  MG_734
REMARK  245  A    between atoms: _593  and  _594
REMARK  246  A    between atoms: _597  and  _599
REMARK  247  A    between atoms: _599  and  _600
REMARK  248  A    between atoms: _599  and  _602
REMARK  249  A    between atoms: _602  and  _603
REMARK  250  A    between atoms: _608  and  _609
REMARK  251  A    between atoms: _611  and  _613
REMARK  252  A    between atoms: _613  and  _614
REMARK  253  A    between atoms: _616  and  _618
REMARK  254  A    between atoms: _618  and  _619
REMARK  255  A    between atoms: _622  and  _624
REMARK  256  A    between atoms: _624  and  _625
REMARK  257  A    between atoms: _624  and  _627
REMARK  258  A    between atoms: _627  and  _628
REMARK  259  A    between atoms: _631  and  _633
REMARK  260  A    between atoms: _633  and  _634
REMARK  261  A    between atoms: _633  and  _636
REMARK  262  A    between atoms: _636  and  _637
REMARK  263  A    between atoms: _637  and  _638
REMARK  264  A    between atoms: _638  and  _639
REMARK  265  A    between atoms: _648  and  _650
REMARK  266  A    between atoms: _650  and  _651
REMARK  267  A    between atoms: _650  and  _653
REMARK  268  A    between atoms: _653  and  _654
REMARK  269  A    between atoms: _664  and  _666
REMARK  270  A    between atoms: _666  and  _667
REMARK  271  A    between atoms: _666  and  _669
REMARK  272  A    between atoms: _669  and  _670
REMARK  273  A    between atoms: _676  and  _678
REMARK  274  A    between atoms: _678  and  _679
REMARK  275  A    between atoms: _681  and  _683
REMARK  276  A    between atoms: _683  and  _684
REMARK  277  A    between atoms: _683  and  _686
REMARK  278  A    between atoms: _686  and  _687
REMARK  279  A    between atoms: _690  and  _692
REMARK  280  A    between atoms: _692  and  _693
REMARK  281  A    between atoms: _692  and  _695
REMARK  282  A    between atoms: _698  and  _700
REMARK  283  A    between atoms: _700  and  _701
REMARK  284  A    between atoms: _700  and  _703
REMARK  285  A    between atoms: _703  and  _704
REMARK  286  A    between atoms: _710  and  _712
REMARK  287  A    between atoms: _712  and  _713
REMARK  288  A    between atoms: _712  and  _715
REMARK  289  A    between atoms: _715  and  _716
REMARK  290  A    between atoms: _719  and  _721
REMARK  291  A    between atoms: _721  and  _722
REMARK  292  A    between atoms: _721  and  _724
REMARK  293  A    between atoms: _728  and  _729
REMARK                            x       y       z     vdW  Elec       q    Type
REMARK                         _______ _______ _______ _____ _____    ______ ____
ROOT
ATOM      1  O   HOH     1      58.024  57.863 167.948  0.00  0.00    +0.000 OA
ENDROOT
TORSDOF 0
REMARK  Name = ../refined-set-2016/3f6e/3f6e_pocket.pdb
REMARK  293 active torsions:
REMARK  status: ('A' for Active; 'I' for Inactive)
REMARK    1  A    between atoms: _1  and  _3
REMARK    2  A    between atoms: _3  and  _4
REMARK    3  A    between atoms: _3  and  _6
REMARK    4  A    between atoms: _6  and  _7
REMARK    5  A    between atoms: _13  and  _14
REMARK    6  A    between atoms: _19  and  _21
REMARK    7  A    between atoms: _21  and  _22
REMARK    8  A    between atoms: _24  and  _26
REMARK    9  A    between atoms: _26  and  _27
REMARK   10  A    between atoms: _26  and  _29
REMARK   11  A    between atoms: _29  and  _30
REMARK   12  A    between atoms: _32  and  _34
REMARK   13  A    between atoms: _34  and  _35
REMARK   14  A    between atoms: _34  and  _37
REMARK   15  A    between atoms: _37  and  _38
REMARK   16  A    between atoms: _43  and  _45
REMARK   17  A    between atoms: _45  and  _46
REMARK   18  A    between atoms: _45  and  _48
REMARK   19  A    between atoms: _48  and  _49
REMARK   20  A    between atoms: _49  and  _50
REMARK   21  A    between atoms: _53  and  _55
REMARK   22  A    between atoms: _55  and  _56
REMARK   23  A    between atoms: _55  and  _58
REMARK   24  A    between atoms: _58  and  _59
REMARK   25  A    between atoms: _62  and  _64
REMARK   26  A    between atoms: _64  and  _65
REMARK   27  A    between atoms: _64  and  _67
REMARK   28  A    between atoms: _67  and  _68
REMARK   29  A    between atoms: _71  and  _73
REMARK   30  A    between atoms: _73  and  _74
REMARK   31  A    between atoms: _77  and  _79
REMARK   32  A    between atoms: _79  and  _80
REMARK   33  A    between atoms: _79  and  _82
REMARK   34  A    between atoms: _82  and  _83
REMARK   35  A    between atoms: _86  and  _88
REMARK   36  A    between atoms: _88  and  _89
REMARK   37  A    between atoms: _88  and  _91
REMARK   38  A    between atoms: _91  and  _92
REMARK   39  A    between atoms: _92  and  _93
REMARK   40  A    between atoms: _98  and  _100
REMARK   41  A    between atoms: _100  and  _101
REMARK   42  A    between atoms: _100  and  _103
REMARK   43  A    between atoms: _103  and  _104
REMARK   44  A    between atoms: _104  and  _105
REMARK   45  A    between atoms: _108  and  _110
REMARK   46  A    between atoms: _110  and  _111
REMARK   47  A    between atoms: _114  and  _116
REMARK   48  A    between atoms: _116  and  _117
REMARK   49  A    between atoms: _116  and  _119
REMARK   50  A    between atoms: _119  and  _120
REMARK   51  A    between atoms: _123  and  _125
REMARK   52  A    between atoms: _125  and  _126
REMARK   53  A    between atoms: _125  and  _128
REMARK   54  A    between atoms: _128  and  _129
REMARK   55  A    between atoms: _134  and  _136
REMARK   56  A    between atoms: _136  and  _137
REMARK   57  A    between atoms: _136  and  _139
REMARK   58  A    between atoms: _139  and  _140
REMARK   59  A    between atoms: _142  and  _144
REMARK   60  A    between atoms: _144  and  _145
REMARK   61  A    between atoms: _148  and  _150
REMARK   62  A    between atoms: _150  and  _151
REMARK   63  A    between atoms: _154  and  _156
REMARK   64  A    between atoms: _156  and  _157
REMARK   65  A    between atoms: _159  and  _161
REMARK   66  A    between atoms: _161  and  _162
REMARK   67  A    between atoms: _161  and  _164
REMARK   68  A    between atoms: _164  and  _165
REMARK   69  A    between atoms: _168  and  _170
REMARK   70  A    between atoms: _170  and  _171
REMARK   71  A    between atoms: _173  and  _175
REMARK   72  A    between atoms: _175  and  _176
REMARK   73  A    between atoms: _175  and  _178
REMARK   74  A    between atoms: _178  and  _179
REMARK   75  A    between atoms: _184  and  _186
REMARK   76  A    between atoms: _186  and  _187
REMARK   77  A    between atoms: _190  and  _192
REMARK   78  A    between atoms: _192  and  _193
REMARK   79  A    between atoms: _192  and  _195
REMARK   80  A    between atoms: _195  and  _196
REMARK   81  A    between atoms: _196  and  _197
REMARK   82  A    between atoms: _202  and  _204
REMARK   83  A    between atoms: _204  and  _205
REMARK   84  A    between atoms: _204  and  _207
REMARK   85  A    between atoms: _207  and  _208
REMARK   86  A    between atoms: _211  and  _213
REMARK   87  A    between atoms: _213  and  _214
REMARK   88  A    between atoms: _213  and  _216
REMARK   89  A    between atoms: _216  and  _217
REMARK   90  A    between atoms: _220  and  _222
REMARK   91  A    between atoms: _222  and  _223
REMARK   92  A    between atoms: _225  and  _227
REMARK   93  A    between atoms: _227  and  _228
REMARK   94  A    between atoms: _231  and  _233
REMARK   95  A    between atoms: _233  and  _234
REMARK   96  A    between atoms: _233  and  _236
REMARK   97  A    between atoms: _236  and  _237
REMARK   98  A    between atoms: _239  and  _241
REMARK   99  A    between atoms: _241  and  _242
REMARK  100  A    between atoms: _241  and  _244
REMARK  101  A    between atoms: _244  and  _245
REMARK  102  A    between atoms: _250  and  _252
REMARK  103  A    between atoms: _252  and  _253
REMARK  104  A    between atoms: _252  and  _255
REMARK  105  A    between atoms: _255  and  _256
REMARK  106  A    between atoms: _258  and  _260
REMARK  107  A    between atoms: _260  and  _261
REMARK  108  A    between atoms: _264  and  _266
REMARK  109  A    between atoms: _266  and  _267
REMARK  110  A    between atoms: _270  and  _272
REMARK  111  A    between atoms: _272  and  _273
REMARK  112  A    between atoms: _272  and  _275
REMARK  113  A    between atoms: _275  and  _276
REMARK  114  A    between atoms: _276  and  _277
REMARK  115  A    between atoms: _277  and  _278
REMARK  116  A    between atoms: _287  and  _289
REMARK  117  A    between atoms: _289  and  _290
REMARK  118  A    between atoms: _289  and  _292
REMARK  119  A    between atoms: _292  and  _293
REMARK  120  A    between atoms: _298  and  _299
REMARK  121  A    between atoms: _301  and  _303
REMARK  122  A    between atoms: _303  and  _304
REMARK  123  A    between atoms: _303  and  _306
REMARK  124  A    between atoms: _306  and  _307
REMARK  125  A    between atoms: _312  and  _314
REMARK  126  A    between atoms: _314  and  _315
REMARK  127  A    between atoms: _314  and  _317
REMARK  128  A    between atoms: _317  and  _318
REMARK  129  A    between atoms: _318  and  _319
REMARK  130  A    between atoms: _325  and  _326
REMARK  131  A    between atoms: _331  and  _333
REMARK  132  A    between atoms: _333  and  _334
REMARK  133  A    between atoms: _333  and  _336
REMARK  134  A    between atoms: _336  and  _337
REMARK  135  A    between atoms: _342  and  _344
REMARK  136  A    between atoms: _344  and  _345
REMARK  137  A    between atoms: _344  and  _347
REMARK  138  A    between atoms: _347  and  _348
REMARK  139  A    between atoms: _348  and  _349
REMARK  140  A    between atoms: _352  and  _354
REMARK  141  A    between atoms: _354  and  _355
REMARK  142  A    between atoms: _354  and  _357
REMARK  143  A    between atoms: _357  and  _358
REMARK  144  A    between atoms: _360  and  _362
REMARK  145  A    between atoms: _362  and  _363
REMARK  146  A    between atoms: _362  and  _365
REMARK  147  A    between atoms: _365  and  _366
REMARK  148  A    between atoms: _369  and  _371
REMARK  149  A    between atoms: _371  and  _372
REMARK  150  A    between atoms: _371  and  _374
REMARK  151  A    between atoms: _374  and  _375
REMARK  152  A    between atoms: _377  and  _379
REMARK  153  A    between atoms: _379  and  _380
REMARK  154  A    between atoms: _379  and  _382
REMARK  155  A    between atoms: _382  and  _383
REMARK  156  A    between atoms: _386  and  _388
REMARK  157  A    between atoms: _388  and  _389
REMARK  158  A    between atoms: _388  and  _391
REMARK  159  A    between atoms: _391  and  _392
REMARK  160  A    between atoms: _395  and  _397
REMARK  161  A    between atoms: _397  and  _398
REMARK  162  A    between atoms: _397  and  _400
REMARK  163  A    between atoms: _400  and  _401
REMARK  164  A    between atoms: _401  and  _402
REMARK  165  A    between atoms: _407  and  _409
REMARK  166  A    between atoms: _409  and  _410
REMARK  167  A    between atoms: _409  and  _412
REMARK  168  A    between atoms: _412  and  _413
REMARK  169  A    between atoms: _419  and  _421
REMARK  170  A    between atoms: _421  and  _422
REMARK  171  A    between atoms: _421  and  _424
REMARK  172  A    between atoms: _426  and  _428
REMARK  173  A    between atoms: _428  and  _429
REMARK  174  A    between atoms: _432  and  _434
REMARK  175  A    between atoms: _434  and  _435
REMARK  176  A    between atoms: _437  and  _439
REMARK  177  A    between atoms: _439  and  _440
REMARK  178  A    between atoms: _442  and  _444
REMARK  179  A    between atoms: _444  and  _445
REMARK  180  A    between atoms: _444  and  _447
REMARK  181  A    between atoms: _447  and  _448
REMARK  182  A    between atoms: _451  and  _453
REMARK  183  A    between atoms: _453  and  _454
REMARK  184  A    between atoms: _456  and  _458
REMARK  185  A    between atoms: _458  and  _459
REMARK  186  A    between atoms: _458  and  _461
REMARK  187  A    between atoms: _461  and  _462
REMARK  188  A    between atoms: _468  and  _470
REMARK  189  A    between atoms: _470  and  _471
REMARK  190  A    between atoms: _470  and  _473
REMARK  191  A    between atoms: _476  and  _478
REMARK  192  A    between atoms: _478  and  _479
REMARK  193  A    between atoms: _478  and  _481
REMARK  194  A    between atoms: _481  and  _482
REMARK  195  A    between atoms: _485  and  _487
REMARK  196  A    between atoms: _487  and  _488
REMARK  197  A    between atoms: _490  and  _492
REMARK  198  A    between atoms: _492  and  _493
REMARK  199  A    between atoms: _492  and  _495
REMARK  200  A    between atoms: _495  and  _496
REMARK  201  A    between atoms: _496  and  _497
REMARK  202  A    between atoms: _497  and  MG_734
REMARK  203  A    between atoms: _499  and  _501
REMARK  204  A    between atoms: _501  and  _502
REMARK  205  A    between atoms: _504  and  _506
REMARK  206  A    between atoms: _506  and  _507
REMARK  207  A    between atoms: _506  and  _509
REMARK  208  A    between atoms: _509  and  _510
REMARK  209  A    between atoms: _512  and  _514
REMARK  210  A    between atoms: _514  and  _515
REMARK  211  A    between atoms: _518  and  _520
REMARK  212  A    between atoms: _520  and  _521
REMARK  213  A    between atoms: _520  and  _523
REMARK  214  A    between atoms: _523  and  _524
REMARK  215  A    between atoms: _529  and  _531
REMARK  216  A    between atoms: _531  and  _532
REMARK  217  A    between atoms: _531  and  _534
REMARK  218  A    between atoms: _534  and  _535
REMARK  219  A    between atoms: _540  and  _541
REMARK  220  A    between atoms: _543  and  _545
REMARK  221  A    between atoms: _545  and  _546
REMARK  222  A    between atoms: _545  and  _548
REMARK  223  A    between atoms: _548  and  _549
REMARK  224  A    between atoms: _552  and  _554
REMARK  225  A    between atoms: _554  and  _555
REMARK  226  A    between atoms: _554  and  _557
REMARK  227  A    between atoms: _557  and  _558
REMARK  228  A    between atoms: _558  and  _559
REMARK  229  A    between atoms: _561  and  _563
REMARK  230  A    between atoms: _563  and  _564
REMARK  231  A    between atoms: _563  and  _566
REMARK  232  A    between atoms: _566  and  _567
REMARK  233  A    between atoms: _572  and  _574
REMARK  234  A    between atoms: _574  and  _575
REMARK  235  A    between atoms: _574  and  _577
REMARK  236  A    between atoms: _577  and  _578
REMARK  237  A    between atoms: _583  and  _585
REMARK  238  A    between atoms: _585  and  _586
REMARK  239  A    between atoms: _588  and  _590
REMARK  240  A    between atoms: _590  and  _591
REMARK  241  A    between atoms: _590  and  _593
REMARK  242  A    between atoms: _591  and  _592
REMARK  243  A    between atoms: _591  and  _597
REMARK  244  A    between atoms: _592  and  MG_734
REMARK  245  A    between atoms: _593  and  _594
REMARK  246  A    between atoms: _597  and  _599
REMARK  247  A    between atoms: _599  and  _600
REMARK  248  A    between atoms: _599  and  _602
REMARK  249  A    between atoms: _602  and  _603
REMARK  250  A    between atoms: _608  and  _609
REMARK  251  A    between atoms: _611  and  _613
REMARK  252  A    between atoms: _613  and  _614
REMARK  253  A    between atoms: _616  and  _618
REMARK  254  A    between atoms: _618  and  _619
REMARK  255  A    between atoms: _622  and  _624
REMARK  256  A    between atoms: _624  and  _625
REMARK  257  A    between atoms: _624  and  _627
REMARK  258  A    between atoms: _627  and  _628
REMARK  259  A    between atoms: _631  and  _633
REMARK  260  A    between atoms: _633  and  _634
REMARK  261  A    between atoms: _633  and  _636
REMARK  262  A    between atoms: _636  and  _637
REMARK  263  A    between atoms: _637  and  _638
REMARK  264  A    between atoms: _638  and  _639
REMARK  265  A    between atoms: _648  and  _650
REMARK  266  A    between atoms: _650  and  _651
REMARK  267  A    between atoms: _650  and  _653
REMARK  268  A    between atoms: _653  and  _654
REMARK  269  A    between atoms: _664  and  _666
REMARK  270  A    between atoms: _666  and  _667
REMARK  271  A    between atoms: _666  and  _669
REMARK  272  A    between atoms: _669  and  _670
REMARK  273  A    between atoms: _676  and  _678
REMARK  274  A    between atoms: _678  and  _679
REMARK  275  A    between atoms: _681  and  _683
REMARK  276  A    between atoms: _683  and  _684
REMARK  277  A    between atoms: _683  and  _686
REMARK  278  A    between atoms: _686  and  _687
REMARK  279  A    between atoms: _690  and  _692
REMARK  280  A    between atoms: _692  and  _693
REMARK  281  A    between atoms: _692  and  _695
REMARK  282  A    between atoms: _698  and  _700
REMARK  283  A    between atoms: _700  and  _701
REMARK  284  A    between atoms: _700  and  _703
REMARK  285  A    between atoms: _703  and  _704
REMARK  286  A    between atoms: _710  and  _712
REMARK  287  A    between atoms: _712  and  _713
REMARK  288  A    between atoms: _712  and  _715
REMARK  289  A    between atoms: _715  and  _716
REMARK  290  A    between atoms: _719  and  _721
REMARK  291  A    between atoms: _721  and  _722
REMARK  292  A    between atoms: _721  and  _724
REMARK  293  A    between atoms: _728  and  _729
REMARK                            x       y       z     vdW  Elec       q    Type
REMARK                         _______ _______ _______ _____ _____    ______ ____
ROOT
ATOM      1  O   HOH     1      57.712  55.486 167.405  0.00  0.00    +0.000 OA
ENDROOT
TORSDOF 0
