REMARK  Name = ../refined-set-2016/3daz/3daz_pocket.pdb
REMARK  139 active torsions:
REMARK  status: ('A' for Active; 'I' for Inactive)
REMARK    1  A    between atoms: _1  and  _3
REMARK    2  A    between atoms: _3  and  _4
REMARK    3  A    between atoms: _3  and  _6
REMARK    4  A    between atoms: _6  and  _7
REMARK    5  A    between atoms: _17  and  _19
REMARK    6  A    between atoms: _19  and  _20
REMARK    7  A    between atoms: _19  and  _22
REMARK    8  A    between atoms: _22  and  _23
REMARK    9  A    between atoms: _28  and  _29
REMARK   10  A    between atoms: _31  and  _33
REMARK   11  A    between atoms: _33  and  _34
REMARK   12  A    between atoms: _33  and  _36
REMARK   13  A    between atoms: _36  and  _37
REMARK   14  A    between atoms: _40  and  _41
REMARK   15  A    between atoms: _46  and  _48
REMARK   16  A    between atoms: _48  and  _49
REMARK   17  A    between atoms: _48  and  _51
REMARK   18  A    between atoms: _51  and  _52
REMARK   19  A    between atoms: _57  and  _59
REMARK   20  A    between atoms: _59  and  _60
REMARK   21  A    between atoms: _59  and  _62
REMARK   22  A    between atoms: _62  and  _63
REMARK   23  A    between atoms: _68  and  _70
REMARK   24  A    between atoms: _70  and  _71
REMARK   25  A    between atoms: _70  and  _73
REMARK   26  A    between atoms: _73  and  _74
REMARK   27  A    between atoms: _77  and  _79
REMARK   28  A    between atoms: _79  and  _80
REMARK   29  A    between atoms: _79  and  _82
REMARK   30  A    between atoms: _82  and  _83
REMARK   31  A    between atoms: _83  and  _84
REMARK   32  A    between atoms: _89  and  _91
REMARK   33  A    between atoms: _91  and  _92
REMARK   34  A    between atoms: _91  and  _94
REMARK   35  A    between atoms: _94  and  _95
REMARK   36  A    between atoms: _101  and  _103
REMARK   37  A    between atoms: _114  and  _117
REMARK   38  A    between atoms: _117  and  _118
REMARK   39  A    between atoms: _126  and  _127
REMARK   40  A    between atoms: _135  and  _137
REMARK   41  A    between atoms: _137  and  _138
REMARK   42  A    between atoms: _137  and  _140
REMARK   43  A    between atoms: _140  and  _141
REMARK   44  A    between atoms: _141  and  _142
REMARK   45  A    between atoms: _145  and  _147
REMARK   46  A    between atoms: _147  and  _148
REMARK   47  A    between atoms: _147  and  _150
REMARK   48  A    between atoms: _150  and  _151
REMARK   49  A    between atoms: _156  and  _158
REMARK   50  A    between atoms: _158  and  _159
REMARK   51  A    between atoms: _158  and  _161
REMARK   52  A    between atoms: _161  and  _162
REMARK   53  A    between atoms: _162  and  _163
REMARK   54  A    between atoms: _166  and  _168
REMARK   55  A    between atoms: _168  and  _169
REMARK   56  A    between atoms: _168  and  _171
REMARK   57  A    between atoms: _171  and  _172
REMARK   58  A    between atoms: _175  and  _177
REMARK   59  A    between atoms: _177  and  _178
REMARK   60  A    between atoms: _177  and  _180
REMARK   61  A    between atoms: _180  and  _181
REMARK   62  A    between atoms: _182  and  ZN_392
REMARK   63  A    between atoms: _186  and  _188
REMARK   64  A    between atoms: _188  and  _189
REMARK   65  A    between atoms: _188  and  _191
REMARK   66  A    between atoms: _191  and  _192
REMARK   67  A    between atoms: _195  and  _197
REMARK   68  A    between atoms: _197  and  _198
REMARK   69  A    between atoms: _197  and  _200
REMARK   70  A    between atoms: _203  and  _205
REMARK   71  A    between atoms: _205  and  _206
REMARK   72  A    between atoms: _205  and  _208
REMARK   73  A    between atoms: _208  and  _209
REMARK   74  A    between atoms: _214  and  _216
REMARK   75  A    between atoms: _216  and  _217
REMARK   76  A    between atoms: _216  and  _219
REMARK   77  A    between atoms: _219  and  _220
REMARK   78  A    between atoms: _226  and  _228
REMARK   79  A    between atoms: _228  and  _229
REMARK   80  A    between atoms: _228  and  _231
REMARK   81  A    between atoms: _234  and  _236
REMARK   82  A    between atoms: _236  and  _237
REMARK   83  A    between atoms: _236  and  _239
REMARK   84  A    between atoms: _239  and  _240
REMARK   85  A    between atoms: _243  and  _245
REMARK   86  A    between atoms: _245  and  _246
REMARK   87  A    between atoms: _249  and  _251
REMARK   88  A    between atoms: _251  and  _252
REMARK   89  A    between atoms: _251  and  _254
REMARK   90  A    between atoms: _257  and  _259
REMARK   91  A    between atoms: _259  and  _260
REMARK   92  A    between atoms: _259  and  _262
REMARK   93  A    between atoms: _262  and  _263
REMARK   94  A    between atoms: _266  and  _268
REMARK   95  A    between atoms: _268  and  _269
REMARK   96  A    between atoms: _268  and  _271
REMARK   97  A    between atoms: _271  and  _272
REMARK   98  A    between atoms: _274  and  _276
REMARK   99  A    between atoms: _276  and  _277
REMARK  100  A    between atoms: _276  and  _279
REMARK  101  A    between atoms: _279  and  _280
REMARK  102  A    between atoms: _283  and  _285
REMARK  103  A    between atoms: _285  and  _286
REMARK  104  A    between atoms: _285  and  _288
REMARK  105  A    between atoms: _288  and  _289
REMARK  106  A    between atoms: _292  and  _294
REMARK  107  A    between atoms: _294  and  _295
REMARK  108  A    between atoms: _294  and  _297
REMARK  109  A    between atoms: _297  and  _298
REMARK  110  A    between atoms: _302  and  _303
REMARK  111  A    between atoms: _309  and  _310
REMARK  112  A    between atoms: _315  and  _317
REMARK  113  A    between atoms: _317  and  _318
REMARK  114  A    between atoms: _317  and  _320
REMARK  115  A    between atoms: _320  and  _321
REMARK  116  A    between atoms: _324  and  _326
REMARK  117  A    between atoms: _326  and  _327
REMARK  118  A    between atoms: _326  and  _329
REMARK  119  A    between atoms: _329  and  _330
REMARK  120  A    between atoms: _333  and  _335
REMARK  121  A    between atoms: _335  and  _336
REMARK  122  A    between atoms: _335  and  _338
REMARK  123  A    between atoms: _340  and  _342
REMARK  124  A    between atoms: _342  and  _343
REMARK  125  A    between atoms: _342  and  _345
REMARK  126  A    between atoms: _348  and  _350
REMARK  127  A    between atoms: _350  and  _351
REMARK  128  A    between atoms: _350  and  _353
REMARK  129  A    between atoms: _353  and  _354
REMARK  130  A    between atoms: _364  and  _366
REMARK  131  A    between atoms: _366  and  _367
REMARK  132  A    between atoms: _366  and  _369
REMARK  133  A    between atoms: _369  and  _370
REMARK  134  A    between atoms: _375  and  _377
REMARK  135  A    between atoms: _377  and  _378
REMARK  136  A    between atoms: _377  and  _380
REMARK  137  A    between atoms: _380  and  _381
REMARK  138  A    between atoms: _381  and  _382
REMARK  139  A    between atoms: _382  and  _383
REMARK                            x       y       z     vdW  Elec       q    Type
REMARK                         _______ _______ _______ _____ _____    ______ ____
ROOT
ATOM      1  CG  TRP A   1       5.986  -0.242  12.249  0.00  0.00    -0.002 A 
ATOM      2  CD2 TRP A   1       4.600  -0.618  12.135  0.00  0.00    +0.013 A 
ATOM      3  CE3 TRP A   1       3.941  -1.838  12.301  0.00  0.00    +0.001 A 
ATOM      4  CZ3 TRP A   1       2.552  -1.876  12.110  0.00  0.00    +0.000 A 
ATOM      5  CH2 TRP A   1       1.864  -0.710  11.763  0.00  0.00    +0.001 A 
ATOM      6  CZ2 TRP A   1       2.489   0.492  11.597  0.00  0.00    +0.017 A 
ATOM      7  CE2 TRP A   1       3.873   0.536  11.785  0.00  0.00    +0.056 A 
ATOM      8  NE1 TRP A   1       4.769   1.575  11.692  0.00  0.00    -0.352 N 
ATOM      9  HE1 TRP A   1       4.535   2.559  11.450  0.00  0.00    +0.166 HD
ATOM     10  CD1 TRP A   1       6.026   1.094  11.973  0.00  0.00    +0.068 A 
ENDROOT
BRANCH   1  11
ATOM     11  CB  TRP A   1       7.128  -1.137  12.605  0.00  0.00    +0.053 C 
BRANCH  11  12
ATOM     12  CA  TRP A   1       7.776  -1.790  11.394  0.00  0.00    +0.137 C 
BRANCH  12  13
ATOM     13  N   TRP A   1       8.396  -0.765  10.548  0.00  0.00    -0.239 NA
ATOM     14  H   TRP A   1       8.130   0.235  10.648  0.00  0.00    +0.142 HD
ENDBRANCH  12  13
BRANCH  12  15
ATOM     15  C   TRP A   1       6.748  -2.573  10.600  0.00  0.00    +0.224 C 
ATOM     16  O   TRP A   1       6.232  -2.052   9.613  0.00  0.00    -0.287 OA
ENDBRANCH  12  15
ENDBRANCH  11  12
ENDBRANCH   1  11
TORSDOF 4
REMARK  Name = ../refined-set-2016/3daz/3daz_pocket.pdb
REMARK  139 active torsions:
REMARK  status: ('A' for Active; 'I' for Inactive)
REMARK    1  A    between atoms: _1  and  _3
REMARK    2  A    between atoms: _3  and  _4
REMARK    3  A    between atoms: _3  and  _6
REMARK    4  A    between atoms: _6  and  _7
REMARK    5  A    between atoms: _17  and  _19
REMARK    6  A    between atoms: _19  and  _20
REMARK    7  A    between atoms: _19  and  _22
REMARK    8  A    between atoms: _22  and  _23
REMARK    9  A    between atoms: _28  and  _29
REMARK   10  A    between atoms: _31  and  _33
REMARK   11  A    between atoms: _33  and  _34
REMARK   12  A    between atoms: _33  and  _36
REMARK   13  A    between atoms: _36  and  _37
REMARK   14  A    between atoms: _40  and  _41
REMARK   15  A    between atoms: _46  and  _48
REMARK   16  A    between atoms: _48  and  _49
REMARK   17  A    between atoms: _48  and  _51
REMARK   18  A    between atoms: _51  and  _52
REMARK   19  A    between atoms: _57  and  _59
REMARK   20  A    between atoms: _59  and  _60
REMARK   21  A    between atoms: _59  and  _62
REMARK   22  A    between atoms: _62  and  _63
REMARK   23  A    between atoms: _68  and  _70
REMARK   24  A    between atoms: _70  and  _71
REMARK   25  A    between atoms: _70  and  _73
REMARK   26  A    between atoms: _73  and  _74
REMARK   27  A    between atoms: _77  and  _79
REMARK   28  A    between atoms: _79  and  _80
REMARK   29  A    between atoms: _79  and  _82
REMARK   30  A    between atoms: _82  and  _83
REMARK   31  A    between atoms: _83  and  _84
REMARK   32  A    between atoms: _89  and  _91
REMARK   33  A    between atoms: _91  and  _92
REMARK   34  A    between atoms: _91  and  _94
REMARK   35  A    between atoms: _94  and  _95
REMARK   36  A    between atoms: _101  and  _103
REMARK   37  A    between atoms: _114  and  _117
REMARK   38  A    between atoms: _117  and  _118
REMARK   39  A    between atoms: _126  and  _127
REMARK   40  A    between atoms: _135  and  _137
REMARK   41  A    between atoms: _137  and  _138
REMARK   42  A    between atoms: _137  and  _140
REMARK   43  A    between atoms: _140  and  _141
REMARK   44  A    between atoms: _141  and  _142
REMARK   45  A    between atoms: _145  and  _147
REMARK   46  A    between atoms: _147  and  _148
REMARK   47  A    between atoms: _147  and  _150
REMARK   48  A    between atoms: _150  and  _151
REMARK   49  A    between atoms: _156  and  _158
REMARK   50  A    between atoms: _158  and  _159
REMARK   51  A    between atoms: _158  and  _161
REMARK   52  A    between atoms: _161  and  _162
REMARK   53  A    between atoms: _162  and  _163
REMARK   54  A    between atoms: _166  and  _168
REMARK   55  A    between atoms: _168  and  _169
REMARK   56  A    between atoms: _168  and  _171
REMARK   57  A    between atoms: _171  and  _172
REMARK   58  A    between atoms: _175  and  _177
REMARK   59  A    between atoms: _177  and  _178
REMARK   60  A    between atoms: _177  and  _180
REMARK   61  A    between atoms: _180  and  _181
REMARK   62  A    between atoms: _182  and  ZN_392
REMARK   63  A    between atoms: _186  and  _188
REMARK   64  A    between atoms: _188  and  _189
REMARK   65  A    between atoms: _188  and  _191
REMARK   66  A    between atoms: _191  and  _192
REMARK   67  A    between atoms: _195  and  _197
REMARK   68  A    between atoms: _197  and  _198
REMARK   69  A    between atoms: _197  and  _200
REMARK   70  A    between atoms: _203  and  _205
REMARK   71  A    between atoms: _205  and  _206
REMARK   72  A    between atoms: _205  and  _208
REMARK   73  A    between atoms: _208  and  _209
REMARK   74  A    between atoms: _214  and  _216
REMARK   75  A    between atoms: _216  and  _217
REMARK   76  A    between atoms: _216  and  _219
REMARK   77  A    between atoms: _219  and  _220
REMARK   78  A    between atoms: _226  and  _228
REMARK   79  A    between atoms: _228  and  _229
REMARK   80  A    between atoms: _228  and  _231
REMARK   81  A    between atoms: _234  and  _236
REMARK   82  A    between atoms: _236  and  _237
REMARK   83  A    between atoms: _236  and  _239
REMARK   84  A    between atoms: _239  and  _240
REMARK   85  A    between atoms: _243  and  _245
REMARK   86  A    between atoms: _245  and  _246
REMARK   87  A    between atoms: _249  and  _251
REMARK   88  A    between atoms: _251  and  _252
REMARK   89  A    between atoms: _251  and  _254
REMARK   90  A    between atoms: _257  and  _259
REMARK   91  A    between atoms: _259  and  _260
REMARK   92  A    between atoms: _259  and  _262
REMARK   93  A    between atoms: _262  and  _263
REMARK   94  A    between atoms: _266  and  _268
REMARK   95  A    between atoms: _268  and  _269
REMARK   96  A    between atoms: _268  and  _271
REMARK   97  A    between atoms: _271  and  _272
REMARK   98  A    between atoms: _274  and  _276
REMARK   99  A    between atoms: _276  and  _277
REMARK  100  A    between atoms: _276  and  _279
REMARK  101  A    between atoms: _279  and  _280
REMARK  102  A    between atoms: _283  and  _285
REMARK  103  A    between atoms: _285  and  _286
REMARK  104  A    between atoms: _285  and  _288
REMARK  105  A    between atoms: _288  and  _289
REMARK  106  A    between atoms: _292  and  _294
REMARK  107  A    between atoms: _294  and  _295
REMARK  108  A    between atoms: _294  and  _297
REMARK  109  A    between atoms: _297  and  _298
REMARK  110  A    between atoms: _302  and  _303
REMARK  111  A    between atoms: _309  and  _310
REMARK  112  A    between atoms: _315  and  _317
REMARK  113  A    between atoms: _317  and  _318
REMARK  114  A    between atoms: _317  and  _320
REMARK  115  A    between atoms: _320  and  _321
REMARK  116  A    between atoms: _324  and  _326
REMARK  117  A    between atoms: _326  and  _327
REMARK  118  A    between atoms: _326  and  _329
REMARK  119  A    between atoms: _329  and  _330
REMARK  120  A    between atoms: _333  and  _335
REMARK  121  A    between atoms: _335  and  _336
REMARK  122  A    between atoms: _335  and  _338
REMARK  123  A    between atoms: _340  and  _342
REMARK  124  A    between atoms: _342  and  _343
REMARK  125  A    between atoms: _342  and  _345
REMARK  126  A    between atoms: _348  and  _350
REMARK  127  A    between atoms: _350  and  _351
REMARK  128  A    between atoms: _350  and  _353
REMARK  129  A    between atoms: _353  and  _354
REMARK  130  A    between atoms: _364  and  _366
REMARK  131  A    between atoms: _366  and  _367
REMARK  132  A    between atoms: _366  and  _369
REMARK  133  A    between atoms: _369  and  _370
REMARK  134  A    between atoms: _375  and  _377
REMARK  135  A    between atoms: _377  and  _378
REMARK  136  A    between atoms: _377  and  _380
REMARK  137  A    between atoms: _380  and  _381
REMARK  138  A    between atoms: _381  and  _382
REMARK  139  A    between atoms: _382  and  _383
REMARK                            x       y       z     vdW  Elec       q    Type
REMARK                         _______ _______ _______ _____ _____    ______ ____
ROOT
ATOM      1  CG  TYR A   1       1.974  -7.289  11.901  0.00  0.00    -0.020 A 
ATOM      2  CD2 TYR A   1       1.593  -7.348  13.239  0.00  0.00    -0.001 A 
ATOM      3  CE2 TYR A   1       0.751  -6.362  13.724  0.00  0.00    +0.036 A 
ATOM      4  CZ  TYR A   1       0.290  -5.343  12.937  0.00  0.00    +0.134 A 
ATOM      5  CE1 TYR A   1       0.641  -5.266  11.619  0.00  0.00    +0.036 A 
ATOM      6  CD1 TYR A   1       1.485  -6.249  11.134  0.00  0.00    -0.001 A 
ENDROOT
BRANCH   4   7
ATOM      7  OH  TYR A   1      -0.555  -4.380  13.441  0.00  0.00    -0.506 OA
ATOM      8  HH  TYR A   1      -0.778  -3.732  12.727  0.00  0.00    +0.292 HD
ENDBRANCH   4   7
BRANCH   1   9
ATOM      9  CB  TYR A   1       2.896  -8.333  11.293  0.00  0.00    +0.051 C 
BRANCH   9  10
ATOM     10  CA  TYR A   1       4.391  -8.078  11.521  0.00  0.00    +0.137 C 
BRANCH  10  11
ATOM     11  N   TYR A   1       4.779  -6.906  10.744  0.00  0.00    -0.239 NA
ATOM     12  H   TYR A   1       4.823  -6.972   9.707  0.00  0.00    +0.142 HD
ENDBRANCH  10  11
BRANCH  10  13
ATOM     13  C   TYR A   1       5.197  -9.302  11.111  0.00  0.00    +0.224 C 
ATOM     14  O   TYR A   1       4.844 -10.439  11.424  0.00  0.00    -0.287 OA
ENDBRANCH  10  13
ENDBRANCH   9  10
ENDBRANCH   1   9
TORSDOF 5
REMARK  Name = ../refined-set-2016/3daz/3daz_pocket.pdb
REMARK  139 active torsions:
REMARK  status: ('A' for Active; 'I' for Inactive)
REMARK    1  A    between atoms: _1  and  _3
REMARK    2  A    between atoms: _3  and  _4
REMARK    3  A    between atoms: _3  and  _6
REMARK    4  A    between atoms: _6  and  _7
REMARK    5  A    between atoms: _17  and  _19
REMARK    6  A    between atoms: _19  and  _20
REMARK    7  A    between atoms: _19  and  _22
REMARK    8  A    between atoms: _22  and  _23
REMARK    9  A    between atoms: _28  and  _29
REMARK   10  A    between atoms: _31  and  _33
REMARK   11  A    between atoms: _33  and  _34
REMARK   12  A    between atoms: _33  and  _36
REMARK   13  A    between atoms: _36  and  _37
REMARK   14  A    between atoms: _40  and  _41
REMARK   15  A    between atoms: _46  and  _48
REMARK   16  A    between atoms: _48  and  _49
REMARK   17  A    between atoms: _48  and  _51
REMARK   18  A    between atoms: _51  and  _52
REMARK   19  A    between atoms: _57  and  _59
REMARK   20  A    between atoms: _59  and  _60
REMARK   21  A    between atoms: _59  and  _62
REMARK   22  A    between atoms: _62  and  _63
REMARK   23  A    between atoms: _68  and  _70
REMARK   24  A    between atoms: _70  and  _71
REMARK   25  A    between atoms: _70  and  _73
REMARK   26  A    between atoms: _73  and  _74
REMARK   27  A    between atoms: _77  and  _79
REMARK   28  A    between atoms: _79  and  _80
REMARK   29  A    between atoms: _79  and  _82
REMARK   30  A    between atoms: _82  and  _83
REMARK   31  A    between atoms: _83  and  _84
REMARK   32  A    between atoms: _89  and  _91
REMARK   33  A    between atoms: _91  and  _92
REMARK   34  A    between atoms: _91  and  _94
REMARK   35  A    between atoms: _94  and  _95
REMARK   36  A    between atoms: _101  and  _103
REMARK   37  A    between atoms: _114  and  _117
REMARK   38  A    between atoms: _117  and  _118
REMARK   39  A    between atoms: _126  and  _127
REMARK   40  A    between atoms: _135  and  _137
REMARK   41  A    between atoms: _137  and  _138
REMARK   42  A    between atoms: _137  and  _140
REMARK   43  A    between atoms: _140  and  _141
REMARK   44  A    between atoms: _141  and  _142
REMARK   45  A    between atoms: _145  and  _147
REMARK   46  A    between atoms: _147  and  _148
REMARK   47  A    between atoms: _147  and  _150
REMARK   48  A    between atoms: _150  and  _151
REMARK   49  A    between atoms: _156  and  _158
REMARK   50  A    between atoms: _158  and  _159
REMARK   51  A    between atoms: _158  and  _161
REMARK   52  A    between atoms: _161  and  _162
REMARK   53  A    between atoms: _162  and  _163
REMARK   54  A    between atoms: _166  and  _168
REMARK   55  A    between atoms: _168  and  _169
REMARK   56  A    between atoms: _168  and  _171
REMARK   57  A    between atoms: _171  and  _172
REMARK   58  A    between atoms: _175  and  _177
REMARK   59  A    between atoms: _177  and  _178
REMARK   60  A    between atoms: _177  and  _180
REMARK   61  A    between atoms: _180  and  _181
REMARK   62  A    between atoms: _182  and  ZN_392
REMARK   63  A    between atoms: _186  and  _188
REMARK   64  A    between atoms: _188  and  _189
REMARK   65  A    between atoms: _188  and  _191
REMARK   66  A    between atoms: _191  and  _192
REMARK   67  A    between atoms: _195  and  _197
REMARK   68  A    between atoms: _197  and  _198
REMARK   69  A    between atoms: _197  and  _200
REMARK   70  A    between atoms: _203  and  _205
REMARK   71  A    between atoms: _205  and  _206
REMARK   72  A    between atoms: _205  and  _208
REMARK   73  A    between atoms: _208  and  _209
REMARK   74  A    between atoms: _214  and  _216
REMARK   75  A    between atoms: _216  and  _217
REMARK   76  A    between atoms: _216  and  _219
REMARK   77  A    between atoms: _219  and  _220
REMARK   78  A    between atoms: _226  and  _228
REMARK   79  A    between atoms: _228  and  _229
REMARK   80  A    between atoms: _228  and  _231
REMARK   81  A    between atoms: _234  and  _236
REMARK   82  A    between atoms: _236  and  _237
REMARK   83  A    between atoms: _236  and  _239
REMARK   84  A    between atoms: _239  and  _240
REMARK   85  A    between atoms: _243  and  _245
REMARK   86  A    between atoms: _245  and  _246
REMARK   87  A    between atoms: _249  and  _251
REMARK   88  A    between atoms: _251  and  _252
REMARK   89  A    between atoms: _251  and  _254
REMARK   90  A    between atoms: _257  and  _259
REMARK   91  A    between atoms: _259  and  _260
REMARK   92  A    between atoms: _259  and  _262
REMARK   93  A    between atoms: _262  and  _263
REMARK   94  A    between atoms: _266  and  _268
REMARK   95  A    between atoms: _268  and  _269
REMARK   96  A    between atoms: _268  and  _271
REMARK   97  A    between atoms: _271  and  _272
REMARK   98  A    between atoms: _274  and  _276
REMARK   99  A    between atoms: _276  and  _277
REMARK  100  A    between atoms: _276  and  _279
REMARK  101  A    between atoms: _279  and  _280
REMARK  102  A    between atoms: _283  and  _285
REMARK  103  A    between atoms: _285  and  _286
REMARK  104  A    between atoms: _285  and  _288
REMARK  105  A    between atoms: _288  and  _289
REMARK  106  A    between atoms: _292  and  _294
REMARK  107  A    between atoms: _294  and  _295
REMARK  108  A    between atoms: _294  and  _297
REMARK  109  A    between atoms: _297  and  _298
REMARK  110  A    between atoms: _302  and  _303
REMARK  111  A    between atoms: _309  and  _310
REMARK  112  A    between atoms: _315  and  _317
REMARK  113  A    between atoms: _317  and  _318
REMARK  114  A    between atoms: _317  and  _320
REMARK  115  A    between atoms: _320  and  _321
REMARK  116  A    between atoms: _324  and  _326
REMARK  117  A    between atoms: _326  and  _327
REMARK  118  A    between atoms: _326  and  _329
REMARK  119  A    between atoms: _329  and  _330
REMARK  120  A    between atoms: _333  and  _335
REMARK  121  A    between atoms: _335  and  _336
REMARK  122  A    between atoms: _335  and  _338
REMARK  123  A    between atoms: _340  and  _342
REMARK  124  A    between atoms: _342  and  _343
REMARK  125  A    between atoms: _342  and  _345
REMARK  126  A    between atoms: _348  and  _350
REMARK  127  A    between atoms: _350  and  _351
REMARK  128  A    between atoms: _350  and  _353
REMARK  129  A    between atoms: _353  and  _354
REMARK  130  A    between atoms: _364  and  _366
REMARK  131  A    between atoms: _366  and  _367
REMARK  132  A    between atoms: _366  and  _369
REMARK  133  A    between atoms: _369  and  _370
REMARK  134  A    between atoms: _375  and  _377
REMARK  135  A    between atoms: _377  and  _378
REMARK  136  A    between atoms: _377  and  _380
REMARK  137  A    between atoms: _380  and  _381
REMARK  138  A    between atoms: _381  and  _382
REMARK  139  A    between atoms: _382  and  _383
REMARK                            x       y       z     vdW  Elec       q    Type
REMARK                         _______ _______ _______ _____ _____    ______ ____
ROOT
ATOM      1  C   SER A   1      -2.338  -3.519  23.428  0.00  0.00    +0.244 C 
ATOM      2  N   PRO A   2      -2.965  -4.667  23.168  0.00  0.00    -0.273 N 
ATOM      3  CA  PRO A   2      -4.171  -5.158  23.830  0.00  0.00    +0.140 C 
ATOM      4  CB  PRO A   2      -4.717  -6.186  22.825  0.00  0.00    +0.030 C 
ATOM      5  CG  PRO A   2      -3.461  -6.767  22.190  0.00  0.00    +0.024 C 
ATOM      6  CD  PRO A   2      -2.500  -5.607  22.110  0.00  0.00    +0.094 C 
ATOM      7  O   SER A   1      -1.338  -3.191  22.778  0.00  0.00    -0.273 OA
ENDROOT
BRANCH   3   8
ATOM      8  C   PRO A   2      -3.807  -5.865  25.136  0.00  0.00    +0.227 C 
ATOM      9  O   PRO A   2      -2.637  -5.893  25.478  0.00  0.00    -0.286 OA
ENDBRANCH   3   8
BRANCH   1  10
ATOM     10  CA  SER A   1      -2.881  -2.599  24.518  0.00  0.00    +0.175 C 
BRANCH  10  11
ATOM     11  N   SER A   1      -1.847  -1.691  24.957  0.00  0.00    -0.236 NA
ATOM     12  H   SER A   1      -1.397  -1.075  24.250  0.00  0.00    +0.142 HD
ENDBRANCH  10  11
BRANCH  10  13
ATOM     13  CB  SER A   1      -4.083  -1.822  23.929  0.00  0.00    +0.163 C 
BRANCH  13  14
ATOM     14  OG  SER A   1      -4.737  -1.046  24.933  0.00  0.00    -0.380 OA
ATOM     15  H   SER A   1      -5.067  -1.645  25.649  0.00  0.00    +0.211 HD
ENDBRANCH  13  14
ENDBRANCH  10  13
ENDBRANCH   1  10
TORSDOF 5
REMARK  Name = ../refined-set-2016/3daz/3daz_pocket.pdb
REMARK  139 active torsions:
REMARK  status: ('A' for Active; 'I' for Inactive)
REMARK    1  A    between atoms: _1  and  _3
REMARK    2  A    between atoms: _3  and  _4
REMARK    3  A    between atoms: _3  and  _6
REMARK    4  A    between atoms: _6  and  _7
REMARK    5  A    between atoms: _17  and  _19
REMARK    6  A    between atoms: _19  and  _20
REMARK    7  A    between atoms: _19  and  _22
REMARK    8  A    between atoms: _22  and  _23
REMARK    9  A    between atoms: _28  and  _29
REMARK   10  A    between atoms: _31  and  _33
REMARK   11  A    between atoms: _33  and  _34
REMARK   12  A    between atoms: _33  and  _36
REMARK   13  A    between atoms: _36  and  _37
REMARK   14  A    between atoms: _40  and  _41
REMARK   15  A    between atoms: _46  and  _48
REMARK   16  A    between atoms: _48  and  _49
REMARK   17  A    between atoms: _48  and  _51
REMARK   18  A    between atoms: _51  and  _52
REMARK   19  A    between atoms: _57  and  _59
REMARK   20  A    between atoms: _59  and  _60
REMARK   21  A    between atoms: _59  and  _62
REMARK   22  A    between atoms: _62  and  _63
REMARK   23  A    between atoms: _68  and  _70
REMARK   24  A    between atoms: _70  and  _71
REMARK   25  A    between atoms: _70  and  _73
REMARK   26  A    between atoms: _73  and  _74
REMARK   27  A    between atoms: _77  and  _79
REMARK   28  A    between atoms: _79  and  _80
REMARK   29  A    between atoms: _79  and  _82
REMARK   30  A    between atoms: _82  and  _83
REMARK   31  A    between atoms: _83  and  _84
REMARK   32  A    between atoms: _89  and  _91
REMARK   33  A    between atoms: _91  and  _92
REMARK   34  A    between atoms: _91  and  _94
REMARK   35  A    between atoms: _94  and  _95
REMARK   36  A    between atoms: _101  and  _103
REMARK   37  A    between atoms: _114  and  _117
REMARK   38  A    between atoms: _117  and  _118
REMARK   39  A    between atoms: _126  and  _127
REMARK   40  A    between atoms: _135  and  _137
REMARK   41  A    between atoms: _137  and  _138
REMARK   42  A    between atoms: _137  and  _140
REMARK   43  A    between atoms: _140  and  _141
REMARK   44  A    between atoms: _141  and  _142
REMARK   45  A    between atoms: _145  and  _147
REMARK   46  A    between atoms: _147  and  _148
REMARK   47  A    between atoms: _147  and  _150
REMARK   48  A    between atoms: _150  and  _151
REMARK   49  A    between atoms: _156  and  _158
REMARK   50  A    between atoms: _158  and  _159
REMARK   51  A    between atoms: _158  and  _161
REMARK   52  A    between atoms: _161  and  _162
REMARK   53  A    between atoms: _162  and  _163
REMARK   54  A    between atoms: _166  and  _168
REMARK   55  A    between atoms: _168  and  _169
REMARK   56  A    between atoms: _168  and  _171
REMARK   57  A    between atoms: _171  and  _172
REMARK   58  A    between atoms: _175  and  _177
REMARK   59  A    between atoms: _177  and  _178
REMARK   60  A    between atoms: _177  and  _180
REMARK   61  A    between atoms: _180  and  _181
REMARK   62  A    between atoms: _182  and  ZN_392
REMARK   63  A    between atoms: _186  and  _188
REMARK   64  A    between atoms: _188  and  _189
REMARK   65  A    between atoms: _188  and  _191
REMARK   66  A    between atoms: _191  and  _192
REMARK   67  A    between atoms: _195  and  _197
REMARK   68  A    between atoms: _197  and  _198
REMARK   69  A    between atoms: _197  and  _200
REMARK   70  A    between atoms: _203  and  _205
REMARK   71  A    between atoms: _205  and  _206
REMARK   72  A    between atoms: _205  and  _208
REMARK   73  A    between atoms: _208  and  _209
REMARK   74  A    between atoms: _214  and  _216
REMARK   75  A    between atoms: _216  and  _217
REMARK   76  A    between atoms: _216  and  _219
REMARK   77  A    between atoms: _219  and  _220
REMARK   78  A    between atoms: _226  and  _228
REMARK   79  A    between atoms: _228  and  _229
REMARK   80  A    between atoms: _228  and  _231
REMARK   81  A    between atoms: _234  and  _236
REMARK   82  A    between atoms: _236  and  _237
REMARK   83  A    between atoms: _236  and  _239
REMARK   84  A    between atoms: _239  and  _240
REMARK   85  A    between atoms: _243  and  _245
REMARK   86  A    between atoms: _245  and  _246
REMARK   87  A    between atoms: _249  and  _251
REMARK   88  A    between atoms: _251  and  _252
REMARK   89  A    between atoms: _251  and  _254
REMARK   90  A    between atoms: _257  and  _259
REMARK   91  A    between atoms: _259  and  _260
REMARK   92  A    between atoms: _259  and  _262
REMARK   93  A    between atoms: _262  and  _263
REMARK   94  A    between atoms: _266  and  _268
REMARK   95  A    between atoms: _268  and  _269
REMARK   96  A    between atoms: _268  and  _271
REMARK   97  A    between atoms: _271  and  _272
REMARK   98  A    between atoms: _274  and  _276
REMARK   99  A    between atoms: _276  and  _277
REMARK  100  A    between atoms: _276  and  _279
REMARK  101  A    between atoms: _279  and  _280
REMARK  102  A    between atoms: _283  and  _285
REMARK  103  A    between atoms: _285  and  _286
REMARK  104  A    between atoms: _285  and  _288
REMARK  105  A    between atoms: _288  and  _289
REMARK  106  A    between atoms: _292  and  _294
REMARK  107  A    between atoms: _294  and  _295
REMARK  108  A    between atoms: _294  and  _297
REMARK  109  A    between atoms: _297  and  _298
REMARK  110  A    between atoms: _302  and  _303
REMARK  111  A    between atoms: _309  and  _310
REMARK  112  A    between atoms: _315  and  _317
REMARK  113  A    between atoms: _317  and  _318
REMARK  114  A    between atoms: _317  and  _320
REMARK  115  A    between atoms: _320  and  _321
REMARK  116  A    between atoms: _324  and  _326
REMARK  117  A    between atoms: _326  and  _327
REMARK  118  A    between atoms: _326  and  _329
REMARK  119  A    between atoms: _329  and  _330
REMARK  120  A    between atoms: _333  and  _335
REMARK  121  A    between atoms: _335  and  _336
REMARK  122  A    between atoms: _335  and  _338
REMARK  123  A    between atoms: _340  and  _342
REMARK  124  A    between atoms: _342  and  _343
REMARK  125  A    between atoms: _342  and  _345
REMARK  126  A    between atoms: _348  and  _350
REMARK  127  A    between atoms: _350  and  _351
REMARK  128  A    between atoms: _350  and  _353
REMARK  129  A    between atoms: _353  and  _354
REMARK  130  A    between atoms: _364  and  _366
REMARK  131  A    between atoms: _366  and  _367
REMARK  132  A    between atoms: _366  and  _369
REMARK  133  A    between atoms: _369  and  _370
REMARK  134  A    between atoms: _375  and  _377
REMARK  135  A    between atoms: _377  and  _378
REMARK  136  A    between atoms: _377  and  _380
REMARK  137  A    between atoms: _380  and  _381
REMARK  138  A    between atoms: _381  and  _382
REMARK  139  A    between atoms: _382  and  _383
REMARK                            x       y       z     vdW  Elec       q    Type
REMARK                         _______ _______ _______ _____ _____    ______ ____
ROOT
ATOM      1  CB  ASN A   1      -2.728   1.697   5.277  0.00  0.00    +0.110 C 
ENDROOT
BRANCH   1   2
ATOM      2  CG  ASN A   1      -2.905   0.871   6.532  0.00  0.00    +0.221 C 
ATOM      3  ND2 ASN A   1      -3.318   1.513   7.629  0.00  0.00    -0.329 N 
ATOM      4 HD21 ASN A   1      -3.475   0.986   8.512  0.00  0.00    +0.145 HD
ATOM      5 HD22 ASN A   1      -3.482   2.540   7.600  0.00  0.00    +0.145 HD
ATOM      6  OD1 ASN A   1      -2.702  -0.331   6.527  0.00  0.00    -0.275 OA
ENDBRANCH   1   2
BRANCH   1   7
ATOM      7  CA  ASN A   1      -2.426   0.863   4.034  0.00  0.00    +0.142 C 
BRANCH   7   8
ATOM      8  N   ASN A   1      -3.561   0.005   3.669  0.00  0.00    -0.239 NA
ATOM      9  H   ASN A   1      -4.127  -0.483   4.392  0.00  0.00    +0.142 HD
ENDBRANCH   7   8
BRANCH   7  10
ATOM     10  C   ASN A   1      -1.137   0.074   4.266  0.00  0.00    +0.225 C 
ATOM     11  O   ASN A   1      -0.214   0.643   4.839  0.00  0.00    -0.287 OA
ENDBRANCH   7  10
ENDBRANCH   1   7
TORSDOF 4
REMARK  Name = ../refined-set-2016/3daz/3daz_pocket.pdb
REMARK  139 active torsions:
REMARK  status: ('A' for Active; 'I' for Inactive)
REMARK    1  A    between atoms: _1  and  _3
REMARK    2  A    between atoms: _3  and  _4
REMARK    3  A    between atoms: _3  and  _6
REMARK    4  A    between atoms: _6  and  _7
REMARK    5  A    between atoms: _17  and  _19
REMARK    6  A    between atoms: _19  and  _20
REMARK    7  A    between atoms: _19  and  _22
REMARK    8  A    between atoms: _22  and  _23
REMARK    9  A    between atoms: _28  and  _29
REMARK   10  A    between atoms: _31  and  _33
REMARK   11  A    between atoms: _33  and  _34
REMARK   12  A    between atoms: _33  and  _36
REMARK   13  A    between atoms: _36  and  _37
REMARK   14  A    between atoms: _40  and  _41
REMARK   15  A    between atoms: _46  and  _48
REMARK   16  A    between atoms: _48  and  _49
REMARK   17  A    between atoms: _48  and  _51
REMARK   18  A    between atoms: _51  and  _52
REMARK   19  A    between atoms: _57  and  _59
REMARK   20  A    between atoms: _59  and  _60
REMARK   21  A    between atoms: _59  and  _62
REMARK   22  A    between atoms: _62  and  _63
REMARK   23  A    between atoms: _68  and  _70
REMARK   24  A    between atoms: _70  and  _71
REMARK   25  A    between atoms: _70  and  _73
REMARK   26  A    between atoms: _73  and  _74
REMARK   27  A    between atoms: _77  and  _79
REMARK   28  A    between atoms: _79  and  _80
REMARK   29  A    between atoms: _79  and  _82
REMARK   30  A    between atoms: _82  and  _83
REMARK   31  A    between atoms: _83  and  _84
REMARK   32  A    between atoms: _89  and  _91
REMARK   33  A    between atoms: _91  and  _92
REMARK   34  A    between atoms: _91  and  _94
REMARK   35  A    between atoms: _94  and  _95
REMARK   36  A    between atoms: _101  and  _103
REMARK   37  A    between atoms: _114  and  _117
REMARK   38  A    between atoms: _117  and  _118
REMARK   39  A    between atoms: _126  and  _127
REMARK   40  A    between atoms: _135  and  _137
REMARK   41  A    between atoms: _137  and  _138
REMARK   42  A    between atoms: _137  and  _140
REMARK   43  A    between atoms: _140  and  _141
REMARK   44  A    between atoms: _141  and  _142
REMARK   45  A    between atoms: _145  and  _147
REMARK   46  A    between atoms: _147  and  _148
REMARK   47  A    between atoms: _147  and  _150
REMARK   48  A    between atoms: _150  and  _151
REMARK   49  A    between atoms: _156  and  _158
REMARK   50  A    between atoms: _158  and  _159
REMARK   51  A    between atoms: _158  and  _161
REMARK   52  A    between atoms: _161  and  _162
REMARK   53  A    between atoms: _162  and  _163
REMARK   54  A    between atoms: _166  and  _168
REMARK   55  A    between atoms: _168  and  _169
REMARK   56  A    between atoms: _168  and  _171
REMARK   57  A    between atoms: _171  and  _172
REMARK   58  A    between atoms: _175  and  _177
REMARK   59  A    between atoms: _177  and  _178
REMARK   60  A    between atoms: _177  and  _180
REMARK   61  A    between atoms: _180  and  _181
REMARK   62  A    between atoms: _182  and  ZN_392
REMARK   63  A    between atoms: _186  and  _188
REMARK   64  A    between atoms: _188  and  _189
REMARK   65  A    between atoms: _188  and  _191
REMARK   66  A    between atoms: _191  and  _192
REMARK   67  A    between atoms: _195  and  _197
REMARK   68  A    between atoms: _197  and  _198
REMARK   69  A    between atoms: _197  and  _200
REMARK   70  A    between atoms: _203  and  _205
REMARK   71  A    between atoms: _205  and  _206
REMARK   72  A    between atoms: _205  and  _208
REMARK   73  A    between atoms: _208  and  _209
REMARK   74  A    between atoms: _214  and  _216
REMARK   75  A    between atoms: _216  and  _217
REMARK   76  A    between atoms: _216  and  _219
REMARK   77  A    between atoms: _219  and  _220
REMARK   78  A    between atoms: _226  and  _228
REMARK   79  A    between atoms: _228  and  _229
REMARK   80  A    between atoms: _228  and  _231
REMARK   81  A    between atoms: _234  and  _236
REMARK   82  A    between atoms: _236  and  _237
REMARK   83  A    between atoms: _236  and  _239
REMARK   84  A    between atoms: _239  and  _240
REMARK   85  A    between atoms: _243  and  _245
REMARK   86  A    between atoms: _245  and  _246
REMARK   87  A    between atoms: _249  and  _251
REMARK   88  A    between atoms: _251  and  _252
REMARK   89  A    between atoms: _251  and  _254
REMARK   90  A    between atoms: _257  and  _259
REMARK   91  A    between atoms: _259  and  _260
REMARK   92  A    between atoms: _259  and  _262
REMARK   93  A    between atoms: _262  and  _263
REMARK   94  A    between atoms: _266  and  _268
REMARK   95  A    between atoms: _268  and  _269
REMARK   96  A    between atoms: _268  and  _271
REMARK   97  A    between atoms: _271  and  _272
REMARK   98  A    between atoms: _274  and  _276
REMARK   99  A    between atoms: _276  and  _277
REMARK  100  A    between atoms: _276  and  _279
REMARK  101  A    between atoms: _279  and  _280
REMARK  102  A    between atoms: _283  and  _285
REMARK  103  A    between atoms: _285  and  _286
REMARK  104  A    between atoms: _285  and  _288
REMARK  105  A    between atoms: _288  and  _289
REMARK  106  A    between atoms: _292  and  _294
REMARK  107  A    between atoms: _294  and  _295
REMARK  108  A    between atoms: _294  and  _297
REMARK  109  A    between atoms: _297  and  _298
REMARK  110  A    between atoms: _302  and  _303
REMARK  111  A    between atoms: _309  and  _310
REMARK  112  A    between atoms: _315  and  _317
REMARK  113  A    between atoms: _317  and  _318
REMARK  114  A    between atoms: _317  and  _320
REMARK  115  A    between atoms: _320  and  _321
REMARK  116  A    between atoms: _324  and  _326
REMARK  117  A    between atoms: _326  and  _327
REMARK  118  A    between atoms: _326  and  _329
REMARK  119  A    between atoms: _329  and  _330
REMARK  120  A    between atoms: _333  and  _335
REMARK  121  A    between atoms: _335  and  _336
REMARK  122  A    between atoms: _335  and  _338
REMARK  123  A    between atoms: _340  and  _342
REMARK  124  A    between atoms: _342  and  _343
REMARK  125  A    between atoms: _342  and  _345
REMARK  126  A    between atoms: _348  and  _350
REMARK  127  A    between atoms: _350  and  _351
REMARK  128  A    between atoms: _350  and  _353
REMARK  129  A    between atoms: _353  and  _354
REMARK  130  A    between atoms: _364  and  _366
REMARK  131  A    between atoms: _366  and  _367
REMARK  132  A    between atoms: _366  and  _369
REMARK  133  A    between atoms: _369  and  _370
REMARK  134  A    between atoms: _375  and  _377
REMARK  135  A    between atoms: _377  and  _378
REMARK  136  A    between atoms: _377  and  _380
REMARK  137  A    between atoms: _380  and  _381
REMARK  138  A    between atoms: _381  and  _382
REMARK  139  A    between atoms: _382  and  _383
REMARK                            x       y       z     vdW  Elec       q    Type
REMARK                         _______ _______ _______ _____ _____    ______ ____
ROOT
ATOM      1  CB  ASN A   1      -8.635   2.009   6.991  0.00  0.00    +0.110 C 
ENDROOT
BRANCH   1   2
ATOM      2  CG  ASN A   1      -7.427   1.844   7.875  0.00  0.00    +0.221 C 
ATOM      3  OD1 ASN A   1      -7.236   0.805   8.482  0.00  0.00    -0.275 OA
ATOM      4  ND2 ASN A   1      -6.590   2.875   7.956  0.00  0.00    -0.329 N 
ATOM      5 HD21 ASN A   1      -5.740   2.809   8.552  0.00  0.00    +0.145 HD
ATOM      6 HD22 ASN A   1      -6.785   3.747   7.423  0.00  0.00    +0.145 HD
ENDBRANCH   1   2
BRANCH   1   7
ATOM      7  CA  ASN A   1      -9.402   0.744   6.613  0.00  0.00    +0.142 C 
BRANCH   7   8
ATOM      8  N   ASN A   1      -8.581  -0.126   5.787  0.00  0.00    -0.239 NA
ATOM      9  H   ASN A   1      -8.130   0.237   4.923  0.00  0.00    +0.142 HD
ENDBRANCH   7   8
BRANCH   7  10
ATOM     10  C   ASN A   1     -10.612   1.231   5.842  0.00  0.00    +0.225 C 
ATOM     11  O   ASN A   1     -10.395   1.609   4.678  0.00  0.00    -0.287 OA
ENDBRANCH   7  10
ENDBRANCH   1   7
TORSDOF 4
REMARK  Name = ../refined-set-2016/3daz/3daz_pocket.pdb
REMARK  139 active torsions:
REMARK  status: ('A' for Active; 'I' for Inactive)
REMARK    1  A    between atoms: _1  and  _3
REMARK    2  A    between atoms: _3  and  _4
REMARK    3  A    between atoms: _3  and  _6
REMARK    4  A    between atoms: _6  and  _7
REMARK    5  A    between atoms: _17  and  _19
REMARK    6  A    between atoms: _19  and  _20
REMARK    7  A    between atoms: _19  and  _22
REMARK    8  A    between atoms: _22  and  _23
REMARK    9  A    between atoms: _28  and  _29
REMARK   10  A    between atoms: _31  and  _33
REMARK   11  A    between atoms: _33  and  _34
REMARK   12  A    between atoms: _33  and  _36
REMARK   13  A    between atoms: _36  and  _37
REMARK   14  A    between atoms: _40  and  _41
REMARK   15  A    between atoms: _46  and  _48
REMARK   16  A    between atoms: _48  and  _49
REMARK   17  A    between atoms: _48  and  _51
REMARK   18  A    between atoms: _51  and  _52
REMARK   19  A    between atoms: _57  and  _59
REMARK   20  A    between atoms: _59  and  _60
REMARK   21  A    between atoms: _59  and  _62
REMARK   22  A    between atoms: _62  and  _63
REMARK   23  A    between atoms: _68  and  _70
REMARK   24  A    between atoms: _70  and  _71
REMARK   25  A    between atoms: _70  and  _73
REMARK   26  A    between atoms: _73  and  _74
REMARK   27  A    between atoms: _77  and  _79
REMARK   28  A    between atoms: _79  and  _80
REMARK   29  A    between atoms: _79  and  _82
REMARK   30  A    between atoms: _82  and  _83
REMARK   31  A    between atoms: _83  and  _84
REMARK   32  A    between atoms: _89  and  _91
REMARK   33  A    between atoms: _91  and  _92
REMARK   34  A    between atoms: _91  and  _94
REMARK   35  A    between atoms: _94  and  _95
REMARK   36  A    between atoms: _101  and  _103
REMARK   37  A    between atoms: _114  and  _117
REMARK   38  A    between atoms: _117  and  _118
REMARK   39  A    between atoms: _126  and  _127
REMARK   40  A    between atoms: _135  and  _137
REMARK   41  A    between atoms: _137  and  _138
REMARK   42  A    between atoms: _137  and  _140
REMARK   43  A    between atoms: _140  and  _141
REMARK   44  A    between atoms: _141  and  _142
REMARK   45  A    between atoms: _145  and  _147
REMARK   46  A    between atoms: _147  and  _148
REMARK   47  A    between atoms: _147  and  _150
REMARK   48  A    between atoms: _150  and  _151
REMARK   49  A    between atoms: _156  and  _158
REMARK   50  A    between atoms: _158  and  _159
REMARK   51  A    between atoms: _158  and  _161
REMARK   52  A    between atoms: _161  and  _162
REMARK   53  A    between atoms: _162  and  _163
REMARK   54  A    between atoms: _166  and  _168
REMARK   55  A    between atoms: _168  and  _169
REMARK   56  A    between atoms: _168  and  _171
REMARK   57  A    between atoms: _171  and  _172
REMARK   58  A    between atoms: _175  and  _177
REMARK   59  A    between atoms: _177  and  _178
REMARK   60  A    between atoms: _177  and  _180
REMARK   61  A    between atoms: _180  and  _181
REMARK   62  A    between atoms: _182  and  ZN_392
REMARK   63  A    between atoms: _186  and  _188
REMARK   64  A    between atoms: _188  and  _189
REMARK   65  A    between atoms: _188  and  _191
REMARK   66  A    between atoms: _191  and  _192
REMARK   67  A    between atoms: _195  and  _197
REMARK   68  A    between atoms: _197  and  _198
REMARK   69  A    between atoms: _197  and  _200
REMARK   70  A    between atoms: _203  and  _205
REMARK   71  A    between atoms: _205  and  _206
REMARK   72  A    between atoms: _205  and  _208
REMARK   73  A    between atoms: _208  and  _209
REMARK   74  A    between atoms: _214  and  _216
REMARK   75  A    between atoms: _216  and  _217
REMARK   76  A    between atoms: _216  and  _219
REMARK   77  A    between atoms: _219  and  _220
REMARK   78  A    between atoms: _226  and  _228
REMARK   79  A    between atoms: _228  and  _229
REMARK   80  A    between atoms: _228  and  _231
REMARK   81  A    between atoms: _234  and  _236
REMARK   82  A    between atoms: _236  and  _237
REMARK   83  A    between atoms: _236  and  _239
REMARK   84  A    between atoms: _239  and  _240
REMARK   85  A    between atoms: _243  and  _245
REMARK   86  A    between atoms: _245  and  _246
REMARK   87  A    between atoms: _249  and  _251
REMARK   88  A    between atoms: _251  and  _252
REMARK   89  A    between atoms: _251  and  _254
REMARK   90  A    between atoms: _257  and  _259
REMARK   91  A    between atoms: _259  and  _260
REMARK   92  A    between atoms: _259  and  _262
REMARK   93  A    between atoms: _262  and  _263
REMARK   94  A    between atoms: _266  and  _268
REMARK   95  A    between atoms: _268  and  _269
REMARK   96  A    between atoms: _268  and  _271
REMARK   97  A    between atoms: _271  and  _272
REMARK   98  A    between atoms: _274  and  _276
REMARK   99  A    between atoms: _276  and  _277
REMARK  100  A    between atoms: _276  and  _279
REMARK  101  A    between atoms: _279  and  _280
REMARK  102  A    between atoms: _283  and  _285
REMARK  103  A    between atoms: _285  and  _286
REMARK  104  A    between atoms: _285  and  _288
REMARK  105  A    between atoms: _288  and  _289
REMARK  106  A    between atoms: _292  and  _294
REMARK  107  A    between atoms: _294  and  _295
REMARK  108  A    between atoms: _294  and  _297
REMARK  109  A    between atoms: _297  and  _298
REMARK  110  A    between atoms: _302  and  _303
REMARK  111  A    between atoms: _309  and  _310
REMARK  112  A    between atoms: _315  and  _317
REMARK  113  A    between atoms: _317  and  _318
REMARK  114  A    between atoms: _317  and  _320
REMARK  115  A    between atoms: _320  and  _321
REMARK  116  A    between atoms: _324  and  _326
REMARK  117  A    between atoms: _326  and  _327
REMARK  118  A    between atoms: _326  and  _329
REMARK  119  A    between atoms: _329  and  _330
REMARK  120  A    between atoms: _333  and  _335
REMARK  121  A    between atoms: _335  and  _336
REMARK  122  A    between atoms: _335  and  _338
REMARK  123  A    between atoms: _340  and  _342
REMARK  124  A    between atoms: _342  and  _343
REMARK  125  A    between atoms: _342  and  _345
REMARK  126  A    between atoms: _348  and  _350
REMARK  127  A    between atoms: _350  and  _351
REMARK  128  A    between atoms: _350  and  _353
REMARK  129  A    between atoms: _353  and  _354
REMARK  130  A    between atoms: _364  and  _366
REMARK  131  A    between atoms: _366  and  _367
REMARK  132  A    between atoms: _366  and  _369
REMARK  133  A    between atoms: _369  and  _370
REMARK  134  A    between atoms: _375  and  _377
REMARK  135  A    between atoms: _377  and  _378
REMARK  136  A    between atoms: _377  and  _380
REMARK  137  A    between atoms: _380  and  _381
REMARK  138  A    between atoms: _381  and  _382
REMARK  139  A    between atoms: _382  and  _383
REMARK                            x       y       z     vdW  Elec       q    Type
REMARK                         _______ _______ _______ _____ _____    ______ ____
ROOT
ATOM      1  C   UNK A   4     -10.357  -1.823  10.328  0.00  0.00    +0.000 C 
ATOM      2  C   UNK A   4     -10.446  -3.138  11.110  0.00  0.00    +0.000 C 
ATOM      3  O   UNK A   4     -11.069  -3.152  12.167  0.00  0.00    +0.000 OA
ATOM      4  N   VAL A   5      -9.782  -4.161  10.577  0.00  0.00    +0.000 N 
ATOM      5  CA  VAL A   5      -9.700  -5.437  11.275  0.00  0.00    +0.000 C 
ATOM      6  C   VAL A   5      -8.251  -5.875  11.511  0.00  0.00    +0.000 C 
ATOM      7  N   UNK A   6      -8.116  -6.814  12.443  0.00  0.00    +0.000 N 
ATOM      8  H   UNK A   6      -8.925  -6.987  13.073  0.00  0.00    +0.000 HD
ATOM      9  C   UNK A   6      -6.917  -7.619  12.647  0.00  0.00    +0.000 C 
ATOM     10  C   UNK A   6      -6.302  -7.408  14.037  0.00  0.00    +0.000 C 
ATOM     11  C   UNK A   6      -5.964  -5.959  14.292  0.00  0.00    +0.000 A 
ATOM     12  C   UNK A   6      -6.787  -4.943  14.713  0.00  0.00    +0.000 A 
ATOM     13  N   UNK A   6      -6.008  -3.801  14.772  0.00  0.00    +0.000 N 
ATOM     14 ZN   UNK A   6      -6.836  -2.016  15.371  0.00  0.00    +0.000 Zn
ATOM     15  N   UNK A   4      -7.573  -1.153  13.686  0.00  0.00    +0.000 N 
ATOM     16  C   UNK A   4      -8.049   0.070  13.514  0.00  0.00    +0.000 A 
ATOM     17  N   UNK A   4      -8.571   0.164  12.282  0.00  0.00    +0.000 NA
ATOM     18  C   UNK A   4      -8.406  -1.049  11.647  0.00  0.00    +0.000 A 
ATOM     19  C   UNK A   4      -7.784  -1.870  12.549  0.00  0.00    +0.000 A 
ATOM     20  C   UNK A   6      -4.763  -4.104  14.411  0.00  0.00    +0.000 A 
ATOM     21  N   UNK A   6      -4.707  -5.414  14.096  0.00  0.00    +0.000 NA
ATOM     22  O   VAL A   5      -7.344  -5.387  10.847  0.00  0.00    +0.000 OA
ATOM     23  H   VAL A   5      -9.317  -4.048   9.653  0.00  0.00    +0.000 HD
ATOM     24  C   UNK A   4      -8.900  -1.303  10.248  0.00  0.00    +0.000 C 
ENDROOT
BRANCH  14  25
ATOM     25  N   UNK A   6      -8.306  -2.711  16.628  0.00  0.00    +0.000 N 
ATOM     26  C   UNK A   6      -7.983  -3.625  17.529  0.00  0.00    +0.000 A 
ATOM     27  N   UNK A   6      -9.113  -4.023  18.143  0.00  0.00    +0.000 NA
ATOM     28  C   UNK A   6     -10.158  -3.311  17.604  0.00  0.00    +0.000 A 
ATOM     29  C   UNK A   6      -9.654  -2.489  16.656  0.00  0.00    +0.000 A 
BRANCH  29  30
ATOM     30  C   UNK A   6     -10.390  -1.507  15.783  0.00  0.00    +0.000 C 
BRANCH  30  31
ATOM     31  C   UNK A   6     -11.880  -1.832  15.673  0.00  0.00    +0.000 C 
BRANCH  31  32
ATOM     32  C   UNK A   6     -12.598  -0.655  15.038  0.00  0.00    +0.000 C 
ATOM     33  N   UNK A   4     -13.577  -0.073  15.713  0.00  0.00    +0.000 N 
ATOM     34  H   UNK A   4     -13.892  -0.506  16.605  0.00  0.00    +0.000 HD
ATOM     35  O   UNK A   6     -12.211  -0.358  13.890  0.00  0.00    +0.000 OA
BRANCH  33  36
ATOM     36  C   UNK A   4     -14.239   1.161  15.256  0.00  0.00    +0.000 C 
BRANCH  36  37
ATOM     37  C   UNK A   4     -13.584   2.308  16.028  0.00  0.00    +0.000 C 
ATOM     38  O   UNK A   4     -13.729   2.363  17.244  0.00  0.00    +0.000 OA
ATOM     39  N   VAL A   5     -12.841   3.157  15.336  0.00  0.00    +0.000 N 
ATOM     40  H   VAL A   5     -12.837   3.096  14.298  0.00  0.00    +0.000 HD
BRANCH  39  41
ATOM     41  CA  VAL A   5     -12.025   4.178  15.992  0.00  0.00    +0.000 C 
BRANCH  41  42
ATOM     42  C   VAL A   5     -12.737   5.525  16.018  0.00  0.00    +0.000 C 
ATOM     43  N   UNK A   6     -12.826   6.145  17.188  0.00  0.00    +0.000 N 
ATOM     44  H   UNK A   6     -12.365   5.714  18.015  0.00  0.00    +0.000 HD
ATOM     45  O   VAL A   5     -13.209   5.953  14.944  0.00  0.00    +0.000 OA
BRANCH  43  46
ATOM     46  C   UNK A   6     -13.539   7.398  17.366  0.00  0.00    +0.000 C 
BRANCH  46  47
ATOM     47  C   UNK A   6     -12.656   8.428  18.098  0.00  0.00    +0.000 C 
ATOM     48  O   UNK A   6     -11.840   7.991  18.924  0.00  0.00    +0.000 OA
ENDBRANCH  46  47
BRANCH  46  49
ATOM     49  C   UNK A   6     -14.817   7.199  18.179  0.00  0.00    +0.000 C 
BRANCH  49  50
ATOM     50  C   UNK A   6     -15.761   6.130  17.754  0.00  0.00    +0.000 A 
ATOM     51  N   UNK A   6     -15.484   4.798  17.951  0.00  0.00    +0.000 NA
ATOM     52  C   UNK A   6     -16.472   4.055  17.492  0.00  0.00    +0.000 A 
ATOM     53  N   UNK A   6     -17.403   4.865  16.986  0.00  0.00    +0.000 NA
ATOM     54  C   UNK A   6     -16.983   6.170  17.144  0.00  0.00    +0.000 A 
ENDBRANCH  49  50
ENDBRANCH  46  49
ENDBRANCH  43  46
ENDBRANCH  41  42
BRANCH  41  55
ATOM     55  CB  VAL A   5     -10.703   4.319  15.206  0.00  0.00    +0.000 C 
ATOM     56  CG2 VAL A   5      -9.859   5.427  15.834  0.00  0.00    +0.000 C 
ATOM     57  CG1 VAL A   5      -9.985   2.985  15.132  0.00  0.00    +0.000 C 
ENDBRANCH  41  55
ENDBRANCH  39  41
ENDBRANCH  36  37
BRANCH  36  58
ATOM     58  C   UNK A   4     -15.748   1.087  15.440  0.00  0.00    +0.000 C 
BRANCH  58  59
ATOM     59  C   UNK A   4     -16.401  -0.008  14.573  0.00  0.00    +0.000 C 
ATOM     60  C   UNK A   4     -17.222  -0.972  15.394  0.00  0.00    +0.000 C 
ATOM     61  C   UNK A   4     -17.294   0.607  13.491  0.00  0.00    +0.000 C 
ENDBRANCH  58  59
ENDBRANCH  36  58
ENDBRANCH  33  36
ENDBRANCH  31  32
BRANCH  31  62
ATOM     62  N   UNK A   6     -12.095  -3.028  14.836  0.00  0.00    +0.000 N 
ATOM     63  C   LEU A   2     -12.729  -4.095  15.339  0.00  0.00    +0.000 C 
ATOM     64  O   LEU A   2     -13.113  -4.210  16.505  0.00  0.00    +0.000 OA
ATOM     65  H   UNK A   6     -11.754  -3.042  13.854  0.00  0.00    +0.000 HD
BRANCH  63  66
ATOM     66  CA  LEU A   2     -12.988  -5.283  14.418  0.00  0.00    +0.000 C 
BRANCH  66  67
ATOM     67  N   LEU A   2     -12.583  -6.525  15.086  0.00  0.00    +0.000 N 
ATOM     68  H   LEU A   2     -13.275  -6.997  15.702  0.00  0.00    +0.000 HD
ATOM     69  C   GLU A   1     -11.396  -7.078  14.952  0.00  0.00    +0.000 C 
ATOM     70  O   GLU A   1     -10.505  -6.669  14.200  0.00  0.00    +0.000 OA
BRANCH  69  71
ATOM     71  CA  GLU A   1     -11.136  -8.340  15.779  0.00  0.00    +0.000 C 
BRANCH  71  72
ATOM     72  N   GLU A   1     -10.634  -9.371  14.867  0.00  0.00    +0.000 NA
ATOM     73  H   GLU A   1      -9.974  -9.105  14.109  0.00  0.00    +0.000 HD
ENDBRANCH  71  72
BRANCH  71  74
ATOM     74  CB  GLU A   1     -10.150  -8.028  16.914  0.00  0.00    +0.000 C 
BRANCH  74  75
ATOM     75  CG  GLU A   1     -10.738  -7.157  18.041  0.00  0.00    +0.000 C 
BRANCH  75  76
ATOM     76  CD  GLU A   1      -9.769  -7.063  19.217  0.00  0.00    +0.000 C 
ATOM     77  OE2 GLU A   1      -9.638  -5.996  19.837  0.00  0.00    +0.000 OA
ATOM     78  OE1 GLU A   1      -9.137  -8.081  19.556  0.00  0.00    +0.000 OA
ENDBRANCH  75  76
ENDBRANCH  74  75
ENDBRANCH  71  74
ENDBRANCH  69  71
ENDBRANCH  66  67
BRANCH  66  79
ATOM     79  CB  LEU A   2     -14.454  -5.424  14.073  0.00  0.00    +0.000 C 
BRANCH  79  80
ATOM     80  CG  LEU A   2     -15.238  -4.183  13.641  0.00  0.00    +0.000 C 
ATOM     81  CD2 LEU A   2     -16.688  -4.596  13.377  0.00  0.00    +0.000 C 
ATOM     82  CD1 LEU A   2     -14.619  -3.529  12.414  0.00  0.00    +0.000 C 
ENDBRANCH  79  80
ENDBRANCH  66  79
ENDBRANCH  63  66
ENDBRANCH  31  62
ENDBRANCH  30  31
ENDBRANCH  29  30
ENDBRANCH  14  25
BRANCH   1  84
ATOM     83  C   UNK A   3     -11.807   0.112  10.312  0.00  0.00    +0.000 C 
ATOM     84  N   UNK A   4     -11.268  -0.894  10.988  0.00  0.00    +0.000 N 
ATOM     85  H   UNK A   4     -11.496  -1.021  11.995  0.00  0.00    +0.000 HD
ATOM     86  O   UNK A   3     -11.572   0.346   9.115  0.00  0.00    +0.000 OA
BRANCH  83  87
ATOM     87  C   UNK A   3     -12.753   0.997  11.126  0.00  0.00    +0.000 C 
BRANCH  87  90
ATOM     88  C   LEU A   2     -12.728   3.407  11.181  0.00  0.00    +0.000 C 
ATOM     89  O   LEU A   2     -12.793   3.409  12.398  0.00  0.00    +0.000 OA
ATOM     90  N   UNK A   3     -12.811   2.297  10.449  0.00  0.00    +0.000 N 
ATOM     91  H   UNK A   3     -12.915   2.351   9.416  0.00  0.00    +0.000 HD
BRANCH  88  92
ATOM     92  CA  LEU A   2     -12.502   4.729  10.428  0.00  0.00    +0.000 C 
BRANCH  92  94
ATOM     93  C   GLU A   1     -12.990   7.084  10.777  0.00  0.00    +0.000 C 
ATOM     94  N   LEU A   2     -12.832   5.860  11.303  0.00  0.00    +0.000 N 
ATOM     95  H   LEU A   2     -12.943   5.713  12.327  0.00  0.00    +0.000 HD
ATOM     96  O   GLU A   1     -12.890   7.221   9.552  0.00  0.00    +0.000 OA
BRANCH  93  97
ATOM     97  CA  GLU A   1     -13.305   8.260  11.694  0.00  0.00    +0.000 C 
BRANCH  97  98
ATOM     98  CB  GLU A   1     -12.012   8.931  12.192  0.00  0.00    +0.000 C 
ATOM     99  CG2 GLU A   1     -11.282   8.072  13.228  0.00  0.00    +0.000 C 
BRANCH  98 100
ATOM    100  CG1 GLU A   1     -11.072   9.313  11.037  0.00  0.00    +0.000 C 
ATOM    101  CD1 GLU A   1      -9.889  10.138  11.524  0.00  0.00    +0.000 C 
ENDBRANCH  98 100
ENDBRANCH  97  98
BRANCH  97 102
ATOM    102  N   GLU A   1     -14.130   7.841  12.825  0.00  0.00    +0.000 NA
ATOM    103  H   GLU A   1     -13.767   7.179  13.540  0.00  0.00    +0.000 HD
ENDBRANCH  97 102
ENDBRANCH  93  97
ENDBRANCH  92  94
BRANCH  92 104
ATOM    104  CB  LEU A   2     -11.050   4.749   9.921  0.00  0.00    +0.000 C 
BRANCH 104 105
ATOM    105  CG  LEU A   2      -9.987   4.774  11.032  0.00  0.00    +0.000 C 
BRANCH 105 106
ATOM    106  CD  LEU A   2      -9.151   3.510  10.915  0.00  0.00    +0.000 C 
ATOM    107  OE1 LEU A   2      -9.725   2.481  11.222  0.00  0.00    +0.000 OA
ATOM    108  NE2 LEU A   2      -7.916   3.605  10.469  0.00  0.00    +0.000 N 
ATOM    109 HE21 LEU A   2      -7.338   2.748  10.352  0.00  0.00    +0.000 HD
ATOM    110 HE22 LEU A   2      -7.518   4.537  10.234  0.00  0.00    +0.000 HD
ENDBRANCH 105 106
ENDBRANCH 104 105
ENDBRANCH  92 104
ENDBRANCH  88  92
ENDBRANCH  87  90
BRANCH  87 111
ATOM    111  C   UNK A   3     -14.104   0.268  11.321  0.00  0.00    +0.000 C 
BRANCH 111 112
ATOM    112  C   UNK A   3     -14.843  -0.235  10.098  0.00  0.00    +0.000 A 
ATOM    113  C   UNK A   3     -15.954   0.463   9.663  0.00  0.00    +0.000 A 
ATOM    114  C   UNK A   3     -16.714   0.045   8.563  0.00  0.00    +0.000 A 
ATOM    115  C   UNK A   3     -16.344  -1.090   7.856  0.00  0.00    +0.000 A 
ATOM    116  C   UNK A   3     -15.224  -1.801   8.265  0.00  0.00    +0.000 A 
ATOM    117  C   UNK A   3     -14.481  -1.367   9.367  0.00  0.00    +0.000 A 
ENDBRANCH 111 112
ENDBRANCH  87 111
ENDBRANCH  83  87
ENDBRANCH   1  84
BRANCH   9 118
ATOM    118  C   UNK A   6      -7.316  -9.084  12.480  0.00  0.00    +0.000 C 
ATOM    119  O   UNK A   6      -8.383  -9.466  12.993  0.00  0.00    +0.000 OA
ENDBRANCH   9 118
BRANCH   5 120
ATOM    120  CB  VAL A   5     -10.386  -6.546  10.438  0.00  0.00    +0.000 C 
BRANCH 120 121
ATOM    121  CG  VAL A   5     -11.868  -6.334  10.148  0.00  0.00    +0.000 A 
ATOM    122  CD2 VAL A   5     -12.841  -6.976  10.908  0.00  0.00    +0.000 A 
ATOM    123  CE2 VAL A   5     -14.196  -6.789  10.644  0.00  0.00    +0.000 A 
ATOM    124  CZ  VAL A   5     -14.576  -5.965   9.580  0.00  0.00    +0.000 A 
ATOM    125  CE1 VAL A   5     -13.616  -5.312   8.821  0.00  0.00    +0.000 A 
ATOM    126  CD1 VAL A   5     -12.266  -5.498   9.097  0.00  0.00    +0.000 A 
ENDBRANCH 120 121
ENDBRANCH   5 120
TORSDOF 42
REMARK  Name = ../refined-set-2016/3daz/3daz_pocket.pdb
REMARK  139 active torsions:
REMARK  status: ('A' for Active; 'I' for Inactive)
REMARK    1  A    between atoms: _1  and  _3
REMARK    2  A    between atoms: _3  and  _4
REMARK    3  A    between atoms: _3  and  _6
REMARK    4  A    between atoms: _6  and  _7
REMARK    5  A    between atoms: _17  and  _19
REMARK    6  A    between atoms: _19  and  _20
REMARK    7  A    between atoms: _19  and  _22
REMARK    8  A    between atoms: _22  and  _23
REMARK    9  A    between atoms: _28  and  _29
REMARK   10  A    between atoms: _31  and  _33
REMARK   11  A    between atoms: _33  and  _34
REMARK   12  A    between atoms: _33  and  _36
REMARK   13  A    between atoms: _36  and  _37
REMARK   14  A    between atoms: _40  and  _41
REMARK   15  A    between atoms: _46  and  _48
REMARK   16  A    between atoms: _48  and  _49
REMARK   17  A    between atoms: _48  and  _51
REMARK   18  A    between atoms: _51  and  _52
REMARK   19  A    between atoms: _57  and  _59
REMARK   20  A    between atoms: _59  and  _60
REMARK   21  A    between atoms: _59  and  _62
REMARK   22  A    between atoms: _62  and  _63
REMARK   23  A    between atoms: _68  and  _70
REMARK   24  A    between atoms: _70  and  _71
REMARK   25  A    between atoms: _70  and  _73
REMARK   26  A    between atoms: _73  and  _74
REMARK   27  A    between atoms: _77  and  _79
REMARK   28  A    between atoms: _79  and  _80
REMARK   29  A    between atoms: _79  and  _82
REMARK   30  A    between atoms: _82  and  _83
REMARK   31  A    between atoms: _83  and  _84
REMARK   32  A    between atoms: _89  and  _91
REMARK   33  A    between atoms: _91  and  _92
REMARK   34  A    between atoms: _91  and  _94
REMARK   35  A    between atoms: _94  and  _95
REMARK   36  A    between atoms: _101  and  _103
REMARK   37  A    between atoms: _114  and  _117
REMARK   38  A    between atoms: _117  and  _118
REMARK   39  A    between atoms: _126  and  _127
REMARK   40  A    between atoms: _135  and  _137
REMARK   41  A    between atoms: _137  and  _138
REMARK   42  A    between atoms: _137  and  _140
REMARK   43  A    between atoms: _140  and  _141
REMARK   44  A    between atoms: _141  and  _142
REMARK   45  A    between atoms: _145  and  _147
REMARK   46  A    between atoms: _147  and  _148
REMARK   47  A    between atoms: _147  and  _150
REMARK   48  A    between atoms: _150  and  _151
REMARK   49  A    between atoms: _156  and  _158
REMARK   50  A    between atoms: _158  and  _159
REMARK   51  A    between atoms: _158  and  _161
REMARK   52  A    between atoms: _161  and  _162
REMARK   53  A    between atoms: _162  and  _163
REMARK   54  A    between atoms: _166  and  _168
REMARK   55  A    between atoms: _168  and  _169
REMARK   56  A    between atoms: _168  and  _171
REMARK   57  A    between atoms: _171  and  _172
REMARK   58  A    between atoms: _175  and  _177
REMARK   59  A    between atoms: _177  and  _178
REMARK   60  A    between atoms: _177  and  _180
REMARK   61  A    between atoms: _180  and  _181
REMARK   62  A    between atoms: _182  and  ZN_392
REMARK   63  A    between atoms: _186  and  _188
REMARK   64  A    between atoms: _188  and  _189
REMARK   65  A    between atoms: _188  and  _191
REMARK   66  A    between atoms: _191  and  _192
REMARK   67  A    between atoms: _195  and  _197
REMARK   68  A    between atoms: _197  and  _198
REMARK   69  A    between atoms: _197  and  _200
REMARK   70  A    between atoms: _203  and  _205
REMARK   71  A    between atoms: _205  and  _206
REMARK   72  A    between atoms: _205  and  _208
REMARK   73  A    between atoms: _208  and  _209
REMARK   74  A    between atoms: _214  and  _216
REMARK   75  A    between atoms: _216  and  _217
REMARK   76  A    between atoms: _216  and  _219
REMARK   77  A    between atoms: _219  and  _220
REMARK   78  A    between atoms: _226  and  _228
REMARK   79  A    between atoms: _228  and  _229
REMARK   80  A    between atoms: _228  and  _231
REMARK   81  A    between atoms: _234  and  _236
REMARK   82  A    between atoms: _236  and  _237
REMARK   83  A    between atoms: _236  and  _239
REMARK   84  A    between atoms: _239  and  _240
REMARK   85  A    between atoms: _243  and  _245
REMARK   86  A    between atoms: _245  and  _246
REMARK   87  A    between atoms: _249  and  _251
REMARK   88  A    between atoms: _251  and  _252
REMARK   89  A    between atoms: _251  and  _254
REMARK   90  A    between atoms: _257  and  _259
REMARK   91  A    between atoms: _259  and  _260
REMARK   92  A    between atoms: _259  and  _262
REMARK   93  A    between atoms: _262  and  _263
REMARK   94  A    between atoms: _266  and  _268
REMARK   95  A    between atoms: _268  and  _269
REMARK   96  A    between atoms: _268  and  _271
REMARK   97  A    between atoms: _271  and  _272
REMARK   98  A    between atoms: _274  and  _276
REMARK   99  A    between atoms: _276  and  _277
REMARK  100  A    between atoms: _276  and  _279
REMARK  101  A    between atoms: _279  and  _280
REMARK  102  A    between atoms: _283  and  _285
REMARK  103  A    between atoms: _285  and  _286
REMARK  104  A    between atoms: _285  and  _288
REMARK  105  A    between atoms: _288  and  _289
REMARK  106  A    between atoms: _292  and  _294
REMARK  107  A    between atoms: _294  and  _295
REMARK  108  A    between atoms: _294  and  _297
REMARK  109  A    between atoms: _297  and  _298
REMARK  110  A    between atoms: _302  and  _303
REMARK  111  A    between atoms: _309  and  _310
REMARK  112  A    between atoms: _315  and  _317
REMARK  113  A    between atoms: _317  and  _318
REMARK  114  A    between atoms: _317  and  _320
REMARK  115  A    between atoms: _320  and  _321
REMARK  116  A    between atoms: _324  and  _326
REMARK  117  A    between atoms: _326  and  _327
REMARK  118  A    between atoms: _326  and  _329
REMARK  119  A    between atoms: _329  and  _330
REMARK  120  A    between atoms: _333  and  _335
REMARK  121  A    between atoms: _335  and  _336
REMARK  122  A    between atoms: _335  and  _338
REMARK  123  A    between atoms: _340  and  _342
REMARK  124  A    between atoms: _342  and  _343
REMARK  125  A    between atoms: _342  and  _345
REMARK  126  A    between atoms: _348  and  _350
REMARK  127  A    between atoms: _350  and  _351
REMARK  128  A    between atoms: _350  and  _353
REMARK  129  A    between atoms: _353  and  _354
REMARK  130  A    between atoms: _364  and  _366
REMARK  131  A    between atoms: _366  and  _367
REMARK  132  A    between atoms: _366  and  _369
REMARK  133  A    between atoms: _369  and  _370
REMARK  134  A    between atoms: _375  and  _377
REMARK  135  A    between atoms: _377  and  _378
REMARK  136  A    between atoms: _377  and  _380
REMARK  137  A    between atoms: _380  and  _381
REMARK  138  A    between atoms: _381  and  _382
REMARK  139  A    between atoms: _382  and  _383
REMARK                            x       y       z     vdW  Elec       q    Type
REMARK                         _______ _______ _______ _____ _____    ______ ____
ROOT
ATOM      1  C   GLU A   1      -6.056  -8.884  21.105  0.00  0.00    +0.238 C 
ATOM      2  O   GLU A   1      -5.220  -9.398  21.849  0.00  0.00    -0.274 OA
ATOM      3  N   HIS A   2      -7.294  -8.522  21.494  0.00  0.00    -0.298 N 
ATOM      4  H   HIS A   2      -7.949  -8.032  20.852  0.00  0.00    +0.150 HD
ENDROOT
BRANCH   1   5
ATOM      5  CA  GLU A   1      -5.738  -8.682  19.618  0.00  0.00    +0.145 C 
BRANCH   5   6
ATOM      6  N   GLU A   1      -6.729  -9.397  18.833  0.00  0.00    -0.238 NA
ATOM      7  H   GLU A   1      -7.612  -8.902  18.594  0.00  0.00    +0.142 HD
ENDBRANCH   5   6
BRANCH   5   8
ATOM      8  CB  GLU A   1      -5.728  -7.196  19.230  0.00  0.00    +0.038 C 
BRANCH   8   9
ATOM      9  CG  GLU A   1      -5.203  -7.079  17.805  0.00  0.00    +0.116 C 
BRANCH   9  10
ATOM     10  CD  GLU A   1      -4.499  -5.753  17.571  0.00  0.00    +0.365 C 
ATOM     11  OE2 GLU A   1      -5.040  -4.656  17.805  0.00  0.00    -0.246 OA
ATOM     12  OE1 GLU A   1      -3.343  -5.864  17.146  0.00  0.00    -0.246 OA
ENDBRANCH   9  10
ENDBRANCH   8   9
ENDBRANCH   5   8
ENDBRANCH   1   5
BRANCH   3  13
ATOM     13  CA  HIS A   2      -7.666  -8.855  22.866  0.00  0.00    +0.143 C 
BRANCH  13  14
ATOM     14  C   HIS A   2      -7.966 -10.344  22.926  0.00  0.00    +0.227 C 
ATOM     15  O   HIS A   2      -8.306 -10.942  21.900  0.00  0.00    -0.286 OA
ENDBRANCH  13  14
BRANCH  13  16
ATOM     16  CB  HIS A   2      -8.883  -8.038  23.286  0.00  0.00    +0.075 C 
BRANCH  16  17
ATOM     17  CG  HIS A   2      -8.522  -6.588  23.490  0.00  0.00    +0.082 A 
ATOM     18  CD2 HIS A   2      -8.092  -5.872  24.540  0.00  0.00    +0.115 A 
ATOM     19  NE2 HIS A   2      -7.919  -4.565  24.133  0.00  0.00    -0.221 NA
ATOM     20  CE1 HIS A   2      -8.230  -4.505  22.845  0.00  0.00    +0.199 A 
ATOM     21  ND1 HIS A   2      -8.608  -5.709  22.413  0.00  0.00    -0.227 NA
ENDBRANCH  16  17
ENDBRANCH  13  16
ENDBRANCH   3  13
TORSDOF 9
REMARK  Name = ../refined-set-2016/3daz/3daz_pocket.pdb
REMARK  139 active torsions:
REMARK  status: ('A' for Active; 'I' for Inactive)
REMARK    1  A    between atoms: _1  and  _3
REMARK    2  A    between atoms: _3  and  _4
REMARK    3  A    between atoms: _3  and  _6
REMARK    4  A    between atoms: _6  and  _7
REMARK    5  A    between atoms: _17  and  _19
REMARK    6  A    between atoms: _19  and  _20
REMARK    7  A    between atoms: _19  and  _22
REMARK    8  A    between atoms: _22  and  _23
REMARK    9  A    between atoms: _28  and  _29
REMARK   10  A    between atoms: _31  and  _33
REMARK   11  A    between atoms: _33  and  _34
REMARK   12  A    between atoms: _33  and  _36
REMARK   13  A    between atoms: _36  and  _37
REMARK   14  A    between atoms: _40  and  _41
REMARK   15  A    between atoms: _46  and  _48
REMARK   16  A    between atoms: _48  and  _49
REMARK   17  A    between atoms: _48  and  _51
REMARK   18  A    between atoms: _51  and  _52
REMARK   19  A    between atoms: _57  and  _59
REMARK   20  A    between atoms: _59  and  _60
REMARK   21  A    between atoms: _59  and  _62
REMARK   22  A    between atoms: _62  and  _63
REMARK   23  A    between atoms: _68  and  _70
REMARK   24  A    between atoms: _70  and  _71
REMARK   25  A    between atoms: _70  and  _73
REMARK   26  A    between atoms: _73  and  _74
REMARK   27  A    between atoms: _77  and  _79
REMARK   28  A    between atoms: _79  and  _80
REMARK   29  A    between atoms: _79  and  _82
REMARK   30  A    between atoms: _82  and  _83
REMARK   31  A    between atoms: _83  and  _84
REMARK   32  A    between atoms: _89  and  _91
REMARK   33  A    between atoms: _91  and  _92
REMARK   34  A    between atoms: _91  and  _94
REMARK   35  A    between atoms: _94  and  _95
REMARK   36  A    between atoms: _101  and  _103
REMARK   37  A    between atoms: _114  and  _117
REMARK   38  A    between atoms: _117  and  _118
REMARK   39  A    between atoms: _126  and  _127
REMARK   40  A    between atoms: _135  and  _137
REMARK   41  A    between atoms: _137  and  _138
REMARK   42  A    between atoms: _137  and  _140
REMARK   43  A    between atoms: _140  and  _141
REMARK   44  A    between atoms: _141  and  _142
REMARK   45  A    between atoms: _145  and  _147
REMARK   46  A    between atoms: _147  and  _148
REMARK   47  A    between atoms: _147  and  _150
REMARK   48  A    between atoms: _150  and  _151
REMARK   49  A    between atoms: _156  and  _158
REMARK   50  A    between atoms: _158  and  _159
REMARK   51  A    between atoms: _158  and  _161
REMARK   52  A    between atoms: _161  and  _162
REMARK   53  A    between atoms: _162  and  _163
REMARK   54  A    between atoms: _166  and  _168
REMARK   55  A    between atoms: _168  and  _169
REMARK   56  A    between atoms: _168  and  _171
REMARK   57  A    between atoms: _171  and  _172
REMARK   58  A    between atoms: _175  and  _177
REMARK   59  A    between atoms: _177  and  _178
REMARK   60  A    between atoms: _177  and  _180
REMARK   61  A    between atoms: _180  and  _181
REMARK   62  A    between atoms: _182  and  ZN_392
REMARK   63  A    between atoms: _186  and  _188
REMARK   64  A    between atoms: _188  and  _189
REMARK   65  A    between atoms: _188  and  _191
REMARK   66  A    between atoms: _191  and  _192
REMARK   67  A    between atoms: _195  and  _197
REMARK   68  A    between atoms: _197  and  _198
REMARK   69  A    between atoms: _197  and  _200
REMARK   70  A    between atoms: _203  and  _205
REMARK   71  A    between atoms: _205  and  _206
REMARK   72  A    between atoms: _205  and  _208
REMARK   73  A    between atoms: _208  and  _209
REMARK   74  A    between atoms: _214  and  _216
REMARK   75  A    between atoms: _216  and  _217
REMARK   76  A    between atoms: _216  and  _219
REMARK   77  A    between atoms: _219  and  _220
REMARK   78  A    between atoms: _226  and  _228
REMARK   79  A    between atoms: _228  and  _229
REMARK   80  A    between atoms: _228  and  _231
REMARK   81  A    between atoms: _234  and  _236
REMARK   82  A    between atoms: _236  and  _237
REMARK   83  A    between atoms: _236  and  _239
REMARK   84  A    between atoms: _239  and  _240
REMARK   85  A    between atoms: _243  and  _245
REMARK   86  A    between atoms: _245  and  _246
REMARK   87  A    between atoms: _249  and  _251
REMARK   88  A    between atoms: _251  and  _252
REMARK   89  A    between atoms: _251  and  _254
REMARK   90  A    between atoms: _257  and  _259
REMARK   91  A    between atoms: _259  and  _260
REMARK   92  A    between atoms: _259  and  _262
REMARK   93  A    between atoms: _262  and  _263
REMARK   94  A    between atoms: _266  and  _268
REMARK   95  A    between atoms: _268  and  _269
REMARK   96  A    between atoms: _268  and  _271
REMARK   97  A    between atoms: _271  and  _272
REMARK   98  A    between atoms: _274  and  _276
REMARK   99  A    between atoms: _276  and  _277
REMARK  100  A    between atoms: _276  and  _279
REMARK  101  A    between atoms: _279  and  _280
REMARK  102  A    between atoms: _283  and  _285
REMARK  103  A    between atoms: _285  and  _286
REMARK  104  A    between atoms: _285  and  _288
REMARK  105  A    between atoms: _288  and  _289
REMARK  106  A    between atoms: _292  and  _294
REMARK  107  A    between atoms: _294  and  _295
REMARK  108  A    between atoms: _294  and  _297
REMARK  109  A    between atoms: _297  and  _298
REMARK  110  A    between atoms: _302  and  _303
REMARK  111  A    between atoms: _309  and  _310
REMARK  112  A    between atoms: _315  and  _317
REMARK  113  A    between atoms: _317  and  _318
REMARK  114  A    between atoms: _317  and  _320
REMARK  115  A    between atoms: _320  and  _321
REMARK  116  A    between atoms: _324  and  _326
REMARK  117  A    between atoms: _326  and  _327
REMARK  118  A    between atoms: _326  and  _329
REMARK  119  A    between atoms: _329  and  _330
REMARK  120  A    between atoms: _333  and  _335
REMARK  121  A    between atoms: _335  and  _336
REMARK  122  A    between atoms: _335  and  _338
REMARK  123  A    between atoms: _340  and  _342
REMARK  124  A    between atoms: _342  and  _343
REMARK  125  A    between atoms: _342  and  _345
REMARK  126  A    between atoms: _348  and  _350
REMARK  127  A    between atoms: _350  and  _351
REMARK  128  A    between atoms: _350  and  _353
REMARK  129  A    between atoms: _353  and  _354
REMARK  130  A    between atoms: _364  and  _366
REMARK  131  A    between atoms: _366  and  _367
REMARK  132  A    between atoms: _366  and  _369
REMARK  133  A    between atoms: _369  and  _370
REMARK  134  A    between atoms: _375  and  _377
REMARK  135  A    between atoms: _377  and  _378
REMARK  136  A    between atoms: _377  and  _380
REMARK  137  A    between atoms: _380  and  _381
REMARK  138  A    between atoms: _381  and  _382
REMARK  139  A    between atoms: _382  and  _383
REMARK                            x       y       z     vdW  Elec       q    Type
REMARK                         _______ _______ _______ _____ _____    ______ ____
ROOT
ATOM      1  CB  PHE A   1      -7.795  12.524  14.036  0.00  0.00    +0.051 C 
ENDROOT
BRANCH   1   2
ATOM      2  CG  PHE A   1      -7.296  11.133  14.416  0.00  0.00    -0.020 A 
ATOM      3  CD2 PHE A   1      -8.184  10.232  14.990  0.00  0.00    -0.004 A 
ATOM      4  CE2 PHE A   1      -7.749   8.972  15.334  0.00  0.00    -0.000 A 
ATOM      5  CZ  PHE A   1      -6.438   8.604  15.145  0.00  0.00    -0.000 A 
ATOM      6  CE1 PHE A   1      -5.541   9.483  14.558  0.00  0.00    -0.000 A 
ATOM      7  CD1 PHE A   1      -5.979  10.743  14.192  0.00  0.00    -0.004 A 
ENDBRANCH   1   2
BRANCH   1   8
ATOM      8  CA  PHE A   1      -7.756  13.499  15.232  0.00  0.00    +0.137 C 
BRANCH   8   9
ATOM      9  N   PHE A   1      -8.335  14.778  14.860  0.00  0.00    -0.239 NA
ATOM     10  H   PHE A   1      -8.731  14.884  13.904  0.00  0.00    +0.142 HD
ENDBRANCH   8   9
BRANCH   8  11
ATOM     11  C   PHE A   1      -6.320  13.638  15.718  0.00  0.00    +0.224 C 
ATOM     12  O   PHE A   1      -5.968  12.977  16.701  0.00  0.00    -0.287 OA
ENDBRANCH   8  11
ENDBRANCH   1   8
TORSDOF 4
REMARK  Name = ../refined-set-2016/3daz/3daz_pocket.pdb
REMARK  139 active torsions:
REMARK  status: ('A' for Active; 'I' for Inactive)
REMARK    1  A    between atoms: _1  and  _3
REMARK    2  A    between atoms: _3  and  _4
REMARK    3  A    between atoms: _3  and  _6
REMARK    4  A    between atoms: _6  and  _7
REMARK    5  A    between atoms: _17  and  _19
REMARK    6  A    between atoms: _19  and  _20
REMARK    7  A    between atoms: _19  and  _22
REMARK    8  A    between atoms: _22  and  _23
REMARK    9  A    between atoms: _28  and  _29
REMARK   10  A    between atoms: _31  and  _33
REMARK   11  A    between atoms: _33  and  _34
REMARK   12  A    between atoms: _33  and  _36
REMARK   13  A    between atoms: _36  and  _37
REMARK   14  A    between atoms: _40  and  _41
REMARK   15  A    between atoms: _46  and  _48
REMARK   16  A    between atoms: _48  and  _49
REMARK   17  A    between atoms: _48  and  _51
REMARK   18  A    between atoms: _51  and  _52
REMARK   19  A    between atoms: _57  and  _59
REMARK   20  A    between atoms: _59  and  _60
REMARK   21  A    between atoms: _59  and  _62
REMARK   22  A    between atoms: _62  and  _63
REMARK   23  A    between atoms: _68  and  _70
REMARK   24  A    between atoms: _70  and  _71
REMARK   25  A    between atoms: _70  and  _73
REMARK   26  A    between atoms: _73  and  _74
REMARK   27  A    between atoms: _77  and  _79
REMARK   28  A    between atoms: _79  and  _80
REMARK   29  A    between atoms: _79  and  _82
REMARK   30  A    between atoms: _82  and  _83
REMARK   31  A    between atoms: _83  and  _84
REMARK   32  A    between atoms: _89  and  _91
REMARK   33  A    between atoms: _91  and  _92
REMARK   34  A    between atoms: _91  and  _94
REMARK   35  A    between atoms: _94  and  _95
REMARK   36  A    between atoms: _101  and  _103
REMARK   37  A    between atoms: _114  and  _117
REMARK   38  A    between atoms: _117  and  _118
REMARK   39  A    between atoms: _126  and  _127
REMARK   40  A    between atoms: _135  and  _137
REMARK   41  A    between atoms: _137  and  _138
REMARK   42  A    between atoms: _137  and  _140
REMARK   43  A    between atoms: _140  and  _141
REMARK   44  A    between atoms: _141  and  _142
REMARK   45  A    between atoms: _145  and  _147
REMARK   46  A    between atoms: _147  and  _148
REMARK   47  A    between atoms: _147  and  _150
REMARK   48  A    between atoms: _150  and  _151
REMARK   49  A    between atoms: _156  and  _158
REMARK   50  A    between atoms: _158  and  _159
REMARK   51  A    between atoms: _158  and  _161
REMARK   52  A    between atoms: _161  and  _162
REMARK   53  A    between atoms: _162  and  _163
REMARK   54  A    between atoms: _166  and  _168
REMARK   55  A    between atoms: _168  and  _169
REMARK   56  A    between atoms: _168  and  _171
REMARK   57  A    between atoms: _171  and  _172
REMARK   58  A    between atoms: _175  and  _177
REMARK   59  A    between atoms: _177  and  _178
REMARK   60  A    between atoms: _177  and  _180
REMARK   61  A    between atoms: _180  and  _181
REMARK   62  A    between atoms: _182  and  ZN_392
REMARK   63  A    between atoms: _186  and  _188
REMARK   64  A    between atoms: _188  and  _189
REMARK   65  A    between atoms: _188  and  _191
REMARK   66  A    between atoms: _191  and  _192
REMARK   67  A    between atoms: _195  and  _197
REMARK   68  A    between atoms: _197  and  _198
REMARK   69  A    between atoms: _197  and  _200
REMARK   70  A    between atoms: _203  and  _205
REMARK   71  A    between atoms: _205  and  _206
REMARK   72  A    between atoms: _205  and  _208
REMARK   73  A    between atoms: _208  and  _209
REMARK   74  A    between atoms: _214  and  _216
REMARK   75  A    between atoms: _216  and  _217
REMARK   76  A    between atoms: _216  and  _219
REMARK   77  A    between atoms: _219  and  _220
REMARK   78  A    between atoms: _226  and  _228
REMARK   79  A    between atoms: _228  and  _229
REMARK   80  A    between atoms: _228  and  _231
REMARK   81  A    between atoms: _234  and  _236
REMARK   82  A    between atoms: _236  and  _237
REMARK   83  A    between atoms: _236  and  _239
REMARK   84  A    between atoms: _239  and  _240
REMARK   85  A    between atoms: _243  and  _245
REMARK   86  A    between atoms: _245  and  _246
REMARK   87  A    between atoms: _249  and  _251
REMARK   88  A    between atoms: _251  and  _252
REMARK   89  A    between atoms: _251  and  _254
REMARK   90  A    between atoms: _257  and  _259
REMARK   91  A    between atoms: _259  and  _260
REMARK   92  A    between atoms: _259  and  _262
REMARK   93  A    between atoms: _262  and  _263
REMARK   94  A    between atoms: _266  and  _268
REMARK   95  A    between atoms: _268  and  _269
REMARK   96  A    between atoms: _268  and  _271
REMARK   97  A    between atoms: _271  and  _272
REMARK   98  A    between atoms: _274  and  _276
REMARK   99  A    between atoms: _276  and  _277
REMARK  100  A    between atoms: _276  and  _279
REMARK  101  A    between atoms: _279  and  _280
REMARK  102  A    between atoms: _283  and  _285
REMARK  103  A    between atoms: _285  and  _286
REMARK  104  A    between atoms: _285  and  _288
REMARK  105  A    between atoms: _288  and  _289
REMARK  106  A    between atoms: _292  and  _294
REMARK  107  A    between atoms: _294  and  _295
REMARK  108  A    between atoms: _294  and  _297
REMARK  109  A    between atoms: _297  and  _298
REMARK  110  A    between atoms: _302  and  _303
REMARK  111  A    between atoms: _309  and  _310
REMARK  112  A    between atoms: _315  and  _317
REMARK  113  A    between atoms: _317  and  _318
REMARK  114  A    between atoms: _317  and  _320
REMARK  115  A    between atoms: _320  and  _321
REMARK  116  A    between atoms: _324  and  _326
REMARK  117  A    between atoms: _326  and  _327
REMARK  118  A    between atoms: _326  and  _329
REMARK  119  A    between atoms: _329  and  _330
REMARK  120  A    between atoms: _333  and  _335
REMARK  121  A    between atoms: _335  and  _336
REMARK  122  A    between atoms: _335  and  _338
REMARK  123  A    between atoms: _340  and  _342
REMARK  124  A    between atoms: _342  and  _343
REMARK  125  A    between atoms: _342  and  _345
REMARK  126  A    between atoms: _348  and  _350
REMARK  127  A    between atoms: _350  and  _351
REMARK  128  A    between atoms: _350  and  _353
REMARK  129  A    between atoms: _353  and  _354
REMARK  130  A    between atoms: _364  and  _366
REMARK  131  A    between atoms: _366  and  _367
REMARK  132  A    between atoms: _366  and  _369
REMARK  133  A    between atoms: _369  and  _370
REMARK  134  A    between atoms: _375  and  _377
REMARK  135  A    between atoms: _377  and  _378
REMARK  136  A    between atoms: _377  and  _380
REMARK  137  A    between atoms: _380  and  _381
REMARK  138  A    between atoms: _381  and  _382
REMARK  139  A    between atoms: _382  and  _383
REMARK                            x       y       z     vdW  Elec       q    Type
REMARK                         _______ _______ _______ _____ _____    ______ ____
ROOT
ATOM      1  CA  VAL A   1      -4.101  11.186  19.971  0.00  0.00    +0.133 C 
ENDROOT
BRANCH   1   2
ATOM      2  CB  VAL A   1      -3.412  10.526  18.752  0.00  0.00    +0.023 C 
ATOM      3  CG2 VAL A   1      -2.430  11.477  18.072  0.00  0.00    +0.002 C 
ATOM      4  CG1 VAL A   1      -4.456  10.012  17.770  0.00  0.00    +0.002 C 
ENDBRANCH   1   2
BRANCH   1   5
ATOM      5  N   VAL A   1      -4.990  12.297  19.612  0.00  0.00    -0.239 NA
ATOM      6  H   VAL A   1      -4.943  12.712  18.660  0.00  0.00    +0.142 HD
ENDBRANCH   1   5
BRANCH   1   7
ATOM      7  C   VAL A   1      -3.011  11.612  20.949  0.00  0.00    +0.224 C 
ATOM      8  O   VAL A   1      -2.295  10.782  21.515  0.00  0.00    -0.287 OA
ENDBRANCH   1   7
TORSDOF 3
REMARK  Name = ../refined-set-2016/3daz/3daz_pocket.pdb
REMARK  139 active torsions:
REMARK  status: ('A' for Active; 'I' for Inactive)
REMARK    1  A    between atoms: _1  and  _3
REMARK    2  A    between atoms: _3  and  _4
REMARK    3  A    between atoms: _3  and  _6
REMARK    4  A    between atoms: _6  and  _7
REMARK    5  A    between atoms: _17  and  _19
REMARK    6  A    between atoms: _19  and  _20
REMARK    7  A    between atoms: _19  and  _22
REMARK    8  A    between atoms: _22  and  _23
REMARK    9  A    between atoms: _28  and  _29
REMARK   10  A    between atoms: _31  and  _33
REMARK   11  A    between atoms: _33  and  _34
REMARK   12  A    between atoms: _33  and  _36
REMARK   13  A    between atoms: _36  and  _37
REMARK   14  A    between atoms: _40  and  _41
REMARK   15  A    between atoms: _46  and  _48
REMARK   16  A    between atoms: _48  and  _49
REMARK   17  A    between atoms: _48  and  _51
REMARK   18  A    between atoms: _51  and  _52
REMARK   19  A    between atoms: _57  and  _59
REMARK   20  A    between atoms: _59  and  _60
REMARK   21  A    between atoms: _59  and  _62
REMARK   22  A    between atoms: _62  and  _63
REMARK   23  A    between atoms: _68  and  _70
REMARK   24  A    between atoms: _70  and  _71
REMARK   25  A    between atoms: _70  and  _73
REMARK   26  A    between atoms: _73  and  _74
REMARK   27  A    between atoms: _77  and  _79
REMARK   28  A    between atoms: _79  and  _80
REMARK   29  A    between atoms: _79  and  _82
REMARK   30  A    between atoms: _82  and  _83
REMARK   31  A    between atoms: _83  and  _84
REMARK   32  A    between atoms: _89  and  _91
REMARK   33  A    between atoms: _91  and  _92
REMARK   34  A    between atoms: _91  and  _94
REMARK   35  A    between atoms: _94  and  _95
REMARK   36  A    between atoms: _101  and  _103
REMARK   37  A    between atoms: _114  and  _117
REMARK   38  A    between atoms: _117  and  _118
REMARK   39  A    between atoms: _126  and  _127
REMARK   40  A    between atoms: _135  and  _137
REMARK   41  A    between atoms: _137  and  _138
REMARK   42  A    between atoms: _137  and  _140
REMARK   43  A    between atoms: _140  and  _141
REMARK   44  A    between atoms: _141  and  _142
REMARK   45  A    between atoms: _145  and  _147
REMARK   46  A    between atoms: _147  and  _148
REMARK   47  A    between atoms: _147  and  _150
REMARK   48  A    between atoms: _150  and  _151
REMARK   49  A    between atoms: _156  and  _158
REMARK   50  A    between atoms: _158  and  _159
REMARK   51  A    between atoms: _158  and  _161
REMARK   52  A    between atoms: _161  and  _162
REMARK   53  A    between atoms: _162  and  _163
REMARK   54  A    between atoms: _166  and  _168
REMARK   55  A    between atoms: _168  and  _169
REMARK   56  A    between atoms: _168  and  _171
REMARK   57  A    between atoms: _171  and  _172
REMARK   58  A    between atoms: _175  and  _177
REMARK   59  A    between atoms: _177  and  _178
REMARK   60  A    between atoms: _177  and  _180
REMARK   61  A    between atoms: _180  and  _181
REMARK   62  A    between atoms: _182  and  ZN_392
REMARK   63  A    between atoms: _186  and  _188
REMARK   64  A    between atoms: _188  and  _189
REMARK   65  A    between atoms: _188  and  _191
REMARK   66  A    between atoms: _191  and  _192
REMARK   67  A    between atoms: _195  and  _197
REMARK   68  A    between atoms: _197  and  _198
REMARK   69  A    between atoms: _197  and  _200
REMARK   70  A    between atoms: _203  and  _205
REMARK   71  A    between atoms: _205  and  _206
REMARK   72  A    between atoms: _205  and  _208
REMARK   73  A    between atoms: _208  and  _209
REMARK   74  A    between atoms: _214  and  _216
REMARK   75  A    between atoms: _216  and  _217
REMARK   76  A    between atoms: _216  and  _219
REMARK   77  A    between atoms: _219  and  _220
REMARK   78  A    between atoms: _226  and  _228
REMARK   79  A    between atoms: _228  and  _229
REMARK   80  A    between atoms: _228  and  _231
REMARK   81  A    between atoms: _234  and  _236
REMARK   82  A    between atoms: _236  and  _237
REMARK   83  A    between atoms: _236  and  _239
REMARK   84  A    between atoms: _239  and  _240
REMARK   85  A    between atoms: _243  and  _245
REMARK   86  A    between atoms: _245  and  _246
REMARK   87  A    between atoms: _249  and  _251
REMARK   88  A    between atoms: _251  and  _252
REMARK   89  A    between atoms: _251  and  _254
REMARK   90  A    between atoms: _257  and  _259
REMARK   91  A    between atoms: _259  and  _260
REMARK   92  A    between atoms: _259  and  _262
REMARK   93  A    between atoms: _262  and  _263
REMARK   94  A    between atoms: _266  and  _268
REMARK   95  A    between atoms: _268  and  _269
REMARK   96  A    between atoms: _268  and  _271
REMARK   97  A    between atoms: _271  and  _272
REMARK   98  A    between atoms: _274  and  _276
REMARK   99  A    between atoms: _276  and  _277
REMARK  100  A    between atoms: _276  and  _279
REMARK  101  A    between atoms: _279  and  _280
REMARK  102  A    between atoms: _283  and  _285
REMARK  103  A    between atoms: _285  and  _286
REMARK  104  A    between atoms: _285  and  _288
REMARK  105  A    between atoms: _288  and  _289
REMARK  106  A    between atoms: _292  and  _294
REMARK  107  A    between atoms: _294  and  _295
REMARK  108  A    between atoms: _294  and  _297
REMARK  109  A    between atoms: _297  and  _298
REMARK  110  A    between atoms: _302  and  _303
REMARK  111  A    between atoms: _309  and  _310
REMARK  112  A    between atoms: _315  and  _317
REMARK  113  A    between atoms: _317  and  _318
REMARK  114  A    between atoms: _317  and  _320
REMARK  115  A    between atoms: _320  and  _321
REMARK  116  A    between atoms: _324  and  _326
REMARK  117  A    between atoms: _326  and  _327
REMARK  118  A    between atoms: _326  and  _329
REMARK  119  A    between atoms: _329  and  _330
REMARK  120  A    between atoms: _333  and  _335
REMARK  121  A    between atoms: _335  and  _336
REMARK  122  A    between atoms: _335  and  _338
REMARK  123  A    between atoms: _340  and  _342
REMARK  124  A    between atoms: _342  and  _343
REMARK  125  A    between atoms: _342  and  _345
REMARK  126  A    between atoms: _348  and  _350
REMARK  127  A    between atoms: _350  and  _351
REMARK  128  A    between atoms: _350  and  _353
REMARK  129  A    between atoms: _353  and  _354
REMARK  130  A    between atoms: _364  and  _366
REMARK  131  A    between atoms: _366  and  _367
REMARK  132  A    between atoms: _366  and  _369
REMARK  133  A    between atoms: _369  and  _370
REMARK  134  A    between atoms: _375  and  _377
REMARK  135  A    between atoms: _377  and  _378
REMARK  136  A    between atoms: _377  and  _380
REMARK  137  A    between atoms: _380  and  _381
REMARK  138  A    between atoms: _381  and  _382
REMARK  139  A    between atoms: _382  and  _383
REMARK                            x       y       z     vdW  Elec       q    Type
REMARK                         _______ _______ _______ _____ _____    ______ ____
ROOT
ATOM      1  C   ALA A   2     -12.478   4.583  20.912  0.00  0.00    +0.241 C 
ATOM      2  N   VAL A   3     -12.041   3.356  21.219  0.00  0.00    -0.297 N 
ATOM      3  H   VAL A   3     -11.693   3.129  22.172  0.00  0.00    +0.150 HD
ATOM      4  O   ALA A   2     -12.850   4.892  19.790  0.00  0.00    -0.273 OA
ENDROOT
BRANCH   1   5
ATOM      5  CA  ALA A   2     -12.401   5.588  22.053  0.00  0.00    +0.149 C 
ATOM      6  CB  ALA A   2     -13.735   6.066  22.579  0.00  0.00    +0.031 C 
BRANCH   5   9
ATOM      7  C   LEU A   1     -10.616   7.234  22.209  0.00  0.00    +0.238 C 
ATOM      8  O   LEU A   1     -10.371   6.976  23.397  0.00  0.00    -0.274 OA
ATOM      9  N   ALA A   2     -11.611   6.703  21.523  0.00  0.00    -0.297 N 
ATOM     10  H   ALA A   2     -11.840   7.085  20.583  0.00  0.00    +0.150 HD
BRANCH   7  11
ATOM     11  CA  LEU A   1      -9.735   8.204  21.422  0.00  0.00    +0.145 C 
BRANCH  11  12
ATOM     12  N   LEU A   1      -9.104   9.159  22.330  0.00  0.00    -0.238 NA
ATOM     13  H   LEU A   1      -8.486   8.802  23.087  0.00  0.00    +0.142 HD
ENDBRANCH  11  12
BRANCH  11  14
ATOM     14  CB  LEU A   1      -8.674   7.368  20.712  0.00  0.00    +0.026 C 
BRANCH  14  15
ATOM     15  CG  LEU A   1      -7.762   8.049  19.690  0.00  0.00    +0.002 C 
ATOM     16  CD2 LEU A   1      -8.484   9.121  18.895  0.00  0.00    +0.000 C 
ATOM     17  CD1 LEU A   1      -7.135   7.006  18.748  0.00  0.00    +0.000 C 
ENDBRANCH  14  15
ENDBRANCH  11  14
ENDBRANCH   7  11
ENDBRANCH   5   9
ENDBRANCH   1   5
BRANCH   2  18
ATOM     18  CA  VAL A   3     -12.072   2.346  20.161  0.00  0.00    +0.149 C 
BRANCH  18  19
ATOM     19  C   VAL A   3     -13.049   1.264  20.612  0.00  0.00    +0.241 C 
ATOM     20  O   VAL A   3     -12.902   0.746  21.713  0.00  0.00    -0.273 OA
ATOM     21  N   LEU A   4     -14.025   0.960  19.809  0.00  0.00    -0.298 N 
ATOM     22  H   LEU A   4     -14.133   1.536  18.950  0.00  0.00    +0.150 HD
BRANCH  21  23
ATOM     23  CA  LEU A   4     -14.981  -0.121  20.012  0.00  0.00    +0.137 C 
BRANCH  23  24
ATOM     24  C   LEU A   4     -14.381  -1.382  19.401  0.00  0.00    +0.227 C 
ATOM     25  O   LEU A   4     -14.116  -1.386  18.190  0.00  0.00    -0.286 OA
ENDBRANCH  23  24
BRANCH  23  26
ATOM     26  CB  LEU A   4     -16.291   0.271  19.344  0.00  0.00    +0.028 C 
BRANCH  26  27
ATOM     27  CG  LEU A   4     -17.588  -0.392  19.737  0.00  0.00    +0.002 C 
ATOM     28  CD2 LEU A   4     -17.723  -0.368  21.248  0.00  0.00    +0.000 C 
ATOM     29  CD1 LEU A   4     -18.758   0.318  19.044  0.00  0.00    +0.000 C 
ENDBRANCH  26  27
ENDBRANCH  23  26
ENDBRANCH  21  23
ENDBRANCH  18  19
BRANCH  18  30
ATOM     30  CB  VAL A   3     -10.691   1.749  19.851  0.00  0.00    +0.027 C 
ATOM     31  CG2 VAL A   3      -9.718   2.844  19.423  0.00  0.00    +0.002 C 
ATOM     32  CG1 VAL A   3     -10.800   0.666  18.769  0.00  0.00    +0.002 C 
ENDBRANCH  18  30
ENDBRANCH   2  18
TORSDOF 13
REMARK  Name = ../refined-set-2016/3daz/3daz_pocket.pdb
REMARK  139 active torsions:
REMARK  status: ('A' for Active; 'I' for Inactive)
REMARK    1  A    between atoms: _1  and  _3
REMARK    2  A    between atoms: _3  and  _4
REMARK    3  A    between atoms: _3  and  _6
REMARK    4  A    between atoms: _6  and  _7
REMARK    5  A    between atoms: _17  and  _19
REMARK    6  A    between atoms: _19  and  _20
REMARK    7  A    between atoms: _19  and  _22
REMARK    8  A    between atoms: _22  and  _23
REMARK    9  A    between atoms: _28  and  _29
REMARK   10  A    between atoms: _31  and  _33
REMARK   11  A    between atoms: _33  and  _34
REMARK   12  A    between atoms: _33  and  _36
REMARK   13  A    between atoms: _36  and  _37
REMARK   14  A    between atoms: _40  and  _41
REMARK   15  A    between atoms: _46  and  _48
REMARK   16  A    between atoms: _48  and  _49
REMARK   17  A    between atoms: _48  and  _51
REMARK   18  A    between atoms: _51  and  _52
REMARK   19  A    between atoms: _57  and  _59
REMARK   20  A    between atoms: _59  and  _60
REMARK   21  A    between atoms: _59  and  _62
REMARK   22  A    between atoms: _62  and  _63
REMARK   23  A    between atoms: _68  and  _70
REMARK   24  A    between atoms: _70  and  _71
REMARK   25  A    between atoms: _70  and  _73
REMARK   26  A    between atoms: _73  and  _74
REMARK   27  A    between atoms: _77  and  _79
REMARK   28  A    between atoms: _79  and  _80
REMARK   29  A    between atoms: _79  and  _82
REMARK   30  A    between atoms: _82  and  _83
REMARK   31  A    between atoms: _83  and  _84
REMARK   32  A    between atoms: _89  and  _91
REMARK   33  A    between atoms: _91  and  _92
REMARK   34  A    between atoms: _91  and  _94
REMARK   35  A    between atoms: _94  and  _95
REMARK   36  A    between atoms: _101  and  _103
REMARK   37  A    between atoms: _114  and  _117
REMARK   38  A    between atoms: _117  and  _118
REMARK   39  A    between atoms: _126  and  _127
REMARK   40  A    between atoms: _135  and  _137
REMARK   41  A    between atoms: _137  and  _138
REMARK   42  A    between atoms: _137  and  _140
REMARK   43  A    between atoms: _140  and  _141
REMARK   44  A    between atoms: _141  and  _142
REMARK   45  A    between atoms: _145  and  _147
REMARK   46  A    between atoms: _147  and  _148
REMARK   47  A    between atoms: _147  and  _150
REMARK   48  A    between atoms: _150  and  _151
REMARK   49  A    between atoms: _156  and  _158
REMARK   50  A    between atoms: _158  and  _159
REMARK   51  A    between atoms: _158  and  _161
REMARK   52  A    between atoms: _161  and  _162
REMARK   53  A    between atoms: _162  and  _163
REMARK   54  A    between atoms: _166  and  _168
REMARK   55  A    between atoms: _168  and  _169
REMARK   56  A    between atoms: _168  and  _171
REMARK   57  A    between atoms: _171  and  _172
REMARK   58  A    between atoms: _175  and  _177
REMARK   59  A    between atoms: _177  and  _178
REMARK   60  A    between atoms: _177  and  _180
REMARK   61  A    between atoms: _180  and  _181
REMARK   62  A    between atoms: _182  and  ZN_392
REMARK   63  A    between atoms: _186  and  _188
REMARK   64  A    between atoms: _188  and  _189
REMARK   65  A    between atoms: _188  and  _191
REMARK   66  A    between atoms: _191  and  _192
REMARK   67  A    between atoms: _195  and  _197
REMARK   68  A    between atoms: _197  and  _198
REMARK   69  A    between atoms: _197  and  _200
REMARK   70  A    between atoms: _203  and  _205
REMARK   71  A    between atoms: _205  and  _206
REMARK   72  A    between atoms: _205  and  _208
REMARK   73  A    between atoms: _208  and  _209
REMARK   74  A    between atoms: _214  and  _216
REMARK   75  A    between atoms: _216  and  _217
REMARK   76  A    between atoms: _216  and  _219
REMARK   77  A    between atoms: _219  and  _220
REMARK   78  A    between atoms: _226  and  _228
REMARK   79  A    between atoms: _228  and  _229
REMARK   80  A    between atoms: _228  and  _231
REMARK   81  A    between atoms: _234  and  _236
REMARK   82  A    between atoms: _236  and  _237
REMARK   83  A    between atoms: _236  and  _239
REMARK   84  A    between atoms: _239  and  _240
REMARK   85  A    between atoms: _243  and  _245
REMARK   86  A    between atoms: _245  and  _246
REMARK   87  A    between atoms: _249  and  _251
REMARK   88  A    between atoms: _251  and  _252
REMARK   89  A    between atoms: _251  and  _254
REMARK   90  A    between atoms: _257  and  _259
REMARK   91  A    between atoms: _259  and  _260
REMARK   92  A    between atoms: _259  and  _262
REMARK   93  A    between atoms: _262  and  _263
REMARK   94  A    between atoms: _266  and  _268
REMARK   95  A    between atoms: _268  and  _269
REMARK   96  A    between atoms: _268  and  _271
REMARK   97  A    between atoms: _271  and  _272
REMARK   98  A    between atoms: _274  and  _276
REMARK   99  A    between atoms: _276  and  _277
REMARK  100  A    between atoms: _276  and  _279
REMARK  101  A    between atoms: _279  and  _280
REMARK  102  A    between atoms: _283  and  _285
REMARK  103  A    between atoms: _285  and  _286
REMARK  104  A    between atoms: _285  and  _288
REMARK  105  A    between atoms: _288  and  _289
REMARK  106  A    between atoms: _292  and  _294
REMARK  107  A    between atoms: _294  and  _295
REMARK  108  A    between atoms: _294  and  _297
REMARK  109  A    between atoms: _297  and  _298
REMARK  110  A    between atoms: _302  and  _303
REMARK  111  A    between atoms: _309  and  _310
REMARK  112  A    between atoms: _315  and  _317
REMARK  113  A    between atoms: _317  and  _318
REMARK  114  A    between atoms: _317  and  _320
REMARK  115  A    between atoms: _320  and  _321
REMARK  116  A    between atoms: _324  and  _326
REMARK  117  A    between atoms: _326  and  _327
REMARK  118  A    between atoms: _326  and  _329
REMARK  119  A    between atoms: _329  and  _330
REMARK  120  A    between atoms: _333  and  _335
REMARK  121  A    between atoms: _335  and  _336
REMARK  122  A    between atoms: _335  and  _338
REMARK  123  A    between atoms: _340  and  _342
REMARK  124  A    between atoms: _342  and  _343
REMARK  125  A    between atoms: _342  and  _345
REMARK  126  A    between atoms: _348  and  _350
REMARK  127  A    between atoms: _350  and  _351
REMARK  128  A    between atoms: _350  and  _353
REMARK  129  A    between atoms: _353  and  _354
REMARK  130  A    between atoms: _364  and  _366
REMARK  131  A    between atoms: _366  and  _367
REMARK  132  A    between atoms: _366  and  _369
REMARK  133  A    between atoms: _369  and  _370
REMARK  134  A    between atoms: _375  and  _377
REMARK  135  A    between atoms: _377  and  _378
REMARK  136  A    between atoms: _377  and  _380
REMARK  137  A    between atoms: _380  and  _381
REMARK  138  A    between atoms: _381  and  _382
REMARK  139  A    between atoms: _382  and  _383
REMARK                            x       y       z     vdW  Elec       q    Type
REMARK                         _______ _______ _______ _____ _____    ______ ____
ROOT
ATOM      1  C   THR A   4       0.939   0.948  16.505  0.00  0.00    +0.246 C 
ATOM      2  O   THR A   4       0.358   1.858  17.107  0.00  0.00    -0.273 OA
ATOM      3  N   PRO A   5       2.191   1.019  16.048  0.00  0.00    -0.272 N 
ATOM      4  CA  PRO A   5       2.874   2.309  16.140  0.00  0.00    +0.152 C 
ATOM      5  CB  PRO A   5       4.122   2.041  15.264  0.00  0.00    +0.031 C 
ATOM      6  CG  PRO A   5       4.405   0.582  15.517  0.00  0.00    +0.024 C 
ATOM      7  CD  PRO A   5       3.022  -0.043  15.470  0.00  0.00    +0.094 C 
ENDROOT
BRANCH   4   8
ATOM      8  C   PRO A   5       2.048   3.446  15.581  0.00  0.00    +0.244 C 
ATOM      9  N   PRO A   6       2.059   4.622  16.178  0.00  0.00    -0.272 N 
ATOM     10  CA  PRO A   6       2.950   5.009  17.277  0.00  0.00    +0.152 C 
ATOM     11  CB  PRO A   6       2.870   6.560  17.207  0.00  0.00    +0.031 C 
ATOM     12  CG  PRO A   6       1.478   6.817  16.703  0.00  0.00    +0.024 C 
ATOM     13  CD  PRO A   6       1.170   5.713  15.738  0.00  0.00    +0.094 C 
ATOM     14  O   PRO A   5       1.314   3.261  14.587  0.00  0.00    -0.273 OA
BRANCH  10  15
ATOM     15  C   PRO A   6       2.595   4.556  18.690  0.00  0.00    +0.241 C 
ATOM     16  O   PRO A   6       3.270   5.009  19.628  0.00  0.00    -0.273 OA
ATOM     17  N   LEU A   7       1.608   3.695  18.933  0.00  0.00    -0.297 N 
ATOM     18  H   LEU A   7       0.965   3.453  18.153  0.00  0.00    +0.150 HD
BRANCH  17  19
ATOM     19  CA  LEU A   7       1.376   3.065  20.249  0.00  0.00    +0.149 C 
BRANCH  19  20
ATOM     20  C   LEU A   7       1.047   4.059  21.357  0.00  0.00    +0.241 C 
ATOM     21  O   LEU A   7       1.251   3.775  22.550  0.00  0.00    -0.273 OA
ATOM     22  N   LEU A   8       0.511   5.208  20.945  0.00  0.00    -0.298 N 
ATOM     23  H   LEU A   8       0.322   5.358  19.933  0.00  0.00    +0.150 HD
BRANCH  22  24
ATOM     24  CA  LEU A   8       0.188   6.258  21.910  0.00  0.00    +0.137 C 
BRANCH  24  25
ATOM     25  C   LEU A   8      -0.847   5.795  22.924  0.00  0.00    +0.227 C 
ATOM     26  O   LEU A   8      -1.800   5.078  22.617  0.00  0.00    -0.286 OA
ENDBRANCH  24  25
BRANCH  24  27
ATOM     27  CB  LEU A   8      -0.297   7.508  21.159  0.00  0.00    +0.028 C 
BRANCH  27  28
ATOM     28  CG  LEU A   8       0.773   8.148  20.262  0.00  0.00    +0.002 C 
ATOM     29  CD2 LEU A   8       1.946   8.637  21.093  0.00  0.00    +0.000 C 
ATOM     30  CD1 LEU A   8       0.155   9.270  19.444  0.00  0.00    +0.000 C 
ENDBRANCH  27  28
ENDBRANCH  24  27
ENDBRANCH  22  24
ENDBRANCH  19  20
BRANCH  19  31
ATOM     31  CB  LEU A   7       2.566   2.193  20.656  0.00  0.00    +0.029 C 
BRANCH  31  32
ATOM     32  CG  LEU A   7       2.882   1.067  19.647  0.00  0.00    +0.002 C 
ATOM     33  CD2 LEU A   7       4.244   0.495  20.008  0.00  0.00    +0.000 C 
ATOM     34  CD1 LEU A   7       1.782   0.020  19.621  0.00  0.00    +0.000 C 
ENDBRANCH  31  32
ENDBRANCH  19  31
ENDBRANCH  17  19
ENDBRANCH  10  15
ENDBRANCH   4   8
BRANCH   1  35
ATOM     35  CA  THR A   4       0.201  -0.362  16.248  0.00  0.00    +0.176 C 
BRANCH  35  38
ATOM     36  C   THR A   3      -1.079  -1.459  17.994  0.00  0.00    +0.243 C 
ATOM     37  O   THR A   3      -0.477  -2.518  17.821  0.00  0.00    -0.273 OA
ATOM     38  N   THR A   4      -0.915  -0.404  17.205  0.00  0.00    -0.295 N 
ATOM     39  H   THR A   4      -1.578   0.395  17.264  0.00  0.00    +0.150 HD
BRANCH  36  40
ATOM     40  CA  THR A   3      -2.072  -1.334  19.149  0.00  0.00    +0.176 C 
BRANCH  40  43
ATOM     41  C   LEU A   2      -2.365   0.914  19.975  0.00  0.00    +0.241 C 
ATOM     42  O   LEU A   2      -1.363   0.731  20.693  0.00  0.00    -0.273 OA
ATOM     43  N   THR A   3      -2.756  -0.047  19.144  0.00  0.00    -0.295 N 
ATOM     44  H   THR A   3      -3.549   0.119  18.491  0.00  0.00    +0.150 HD
BRANCH  41  45
ATOM     45  CA  LEU A   2      -3.130   2.230  20.010  0.00  0.00    +0.149 C 
BRANCH  45  48
ATOM     46  C   SER A   1      -3.594   2.049  22.378  0.00  0.00    +0.241 C 
ATOM     47  O   SER A   1      -4.365   1.124  22.190  0.00  0.00    -0.274 OA
ATOM     48  N   LEU A   2      -3.061   2.757  21.371  0.00  0.00    -0.297 N 
ATOM     49  H   LEU A   2      -2.603   3.672  21.557  0.00  0.00    +0.150 HD
BRANCH  46  50
ATOM     50  CA  SER A   1      -3.164   2.447  23.799  0.00  0.00    +0.174 C 
BRANCH  50  51
ATOM     51  N   SER A   1      -3.961   1.811  24.837  0.00  0.00    -0.236 NA
ATOM     52  H   SER A   1      -4.193   0.802  24.741  0.00  0.00    +0.142 HD
ENDBRANCH  50  51
BRANCH  50  53
ATOM     53  CB  SER A   1      -1.693   2.052  23.969  0.00  0.00    +0.163 C 
BRANCH  53  54
ATOM     54  OG  SER A   1      -1.476   0.724  23.443  0.00  0.00    -0.380 OA
ATOM     55  H   SER A   1      -1.709   0.709  22.481  0.00  0.00    +0.211 HD
ENDBRANCH  53  54
ENDBRANCH  50  53
ENDBRANCH  46  50
ENDBRANCH  45  48
BRANCH  45  56
ATOM     56  CB  LEU A   2      -2.497   3.255  19.065  0.00  0.00    +0.029 C 
BRANCH  56  57
ATOM     57  CG  LEU A   2      -3.234   4.616  19.052  0.00  0.00    +0.002 C 
ATOM     58  CD2 LEU A   2      -4.643   4.490  18.506  0.00  0.00    +0.000 C 
ATOM     59  CD1 LEU A   2      -2.422   5.632  18.258  0.00  0.00    +0.000 C 
ENDBRANCH  56  57
ENDBRANCH  45  56
ENDBRANCH  41  45
ENDBRANCH  40  43
BRANCH  40  60
ATOM     60  CB  THR A   3      -3.062  -2.508  19.065  0.00  0.00    +0.137 C 
ATOM     61  CG2 THR A   3      -4.087  -2.406  20.205  0.00  0.00    +0.034 C 
BRANCH  60  62
ATOM     62  OG1 THR A   3      -3.735  -2.449  17.812  0.00  0.00    -0.382 OA
ATOM     63  HG1 THR A   3      -4.376  -3.201  17.747  0.00  0.00    +0.210 HD
ENDBRANCH  60  62
ENDBRANCH  40  60
ENDBRANCH  36  40
ENDBRANCH  35  38
BRANCH  35  64
ATOM     64  CB  THR A   4      -0.208  -0.418  14.765  0.00  0.00    +0.137 C 
ATOM     65  CG2 THR A   4      -1.279  -1.458  14.497  0.00  0.00    +0.034 C 
BRANCH  64  66
ATOM     66  OG1 THR A   4      -0.751   0.864  14.414  0.00  0.00    -0.382 OA
ATOM     67  HG1 THR A   4      -0.064   1.562  14.556  0.00  0.00    +0.210 HD
ENDBRANCH  64  66
ENDBRANCH  35  64
ENDBRANCH   1  35
TORSDOF 26
REMARK  Name = ../refined-set-2016/3daz/3daz_pocket.pdb
REMARK  139 active torsions:
REMARK  status: ('A' for Active; 'I' for Inactive)
REMARK    1  A    between atoms: _1  and  _3
REMARK    2  A    between atoms: _3  and  _4
REMARK    3  A    between atoms: _3  and  _6
REMARK    4  A    between atoms: _6  and  _7
REMARK    5  A    between atoms: _17  and  _19
REMARK    6  A    between atoms: _19  and  _20
REMARK    7  A    between atoms: _19  and  _22
REMARK    8  A    between atoms: _22  and  _23
REMARK    9  A    between atoms: _28  and  _29
REMARK   10  A    between atoms: _31  and  _33
REMARK   11  A    between atoms: _33  and  _34
REMARK   12  A    between atoms: _33  and  _36
REMARK   13  A    between atoms: _36  and  _37
REMARK   14  A    between atoms: _40  and  _41
REMARK   15  A    between atoms: _46  and  _48
REMARK   16  A    between atoms: _48  and  _49
REMARK   17  A    between atoms: _48  and  _51
REMARK   18  A    between atoms: _51  and  _52
REMARK   19  A    between atoms: _57  and  _59
REMARK   20  A    between atoms: _59  and  _60
REMARK   21  A    between atoms: _59  and  _62
REMARK   22  A    between atoms: _62  and  _63
REMARK   23  A    between atoms: _68  and  _70
REMARK   24  A    between atoms: _70  and  _71
REMARK   25  A    between atoms: _70  and  _73
REMARK   26  A    between atoms: _73  and  _74
REMARK   27  A    between atoms: _77  and  _79
REMARK   28  A    between atoms: _79  and  _80
REMARK   29  A    between atoms: _79  and  _82
REMARK   30  A    between atoms: _82  and  _83
REMARK   31  A    between atoms: _83  and  _84
REMARK   32  A    between atoms: _89  and  _91
REMARK   33  A    between atoms: _91  and  _92
REMARK   34  A    between atoms: _91  and  _94
REMARK   35  A    between atoms: _94  and  _95
REMARK   36  A    between atoms: _101  and  _103
REMARK   37  A    between atoms: _114  and  _117
REMARK   38  A    between atoms: _117  and  _118
REMARK   39  A    between atoms: _126  and  _127
REMARK   40  A    between atoms: _135  and  _137
REMARK   41  A    between atoms: _137  and  _138
REMARK   42  A    between atoms: _137  and  _140
REMARK   43  A    between atoms: _140  and  _141
REMARK   44  A    between atoms: _141  and  _142
REMARK   45  A    between atoms: _145  and  _147
REMARK   46  A    between atoms: _147  and  _148
REMARK   47  A    between atoms: _147  and  _150
REMARK   48  A    between atoms: _150  and  _151
REMARK   49  A    between atoms: _156  and  _158
REMARK   50  A    between atoms: _158  and  _159
REMARK   51  A    between atoms: _158  and  _161
REMARK   52  A    between atoms: _161  and  _162
REMARK   53  A    between atoms: _162  and  _163
REMARK   54  A    between atoms: _166  and  _168
REMARK   55  A    between atoms: _168  and  _169
REMARK   56  A    between atoms: _168  and  _171
REMARK   57  A    between atoms: _171  and  _172
REMARK   58  A    between atoms: _175  and  _177
REMARK   59  A    between atoms: _177  and  _178
REMARK   60  A    between atoms: _177  and  _180
REMARK   61  A    between atoms: _180  and  _181
REMARK   62  A    between atoms: _182  and  ZN_392
REMARK   63  A    between atoms: _186  and  _188
REMARK   64  A    between atoms: _188  and  _189
REMARK   65  A    between atoms: _188  and  _191
REMARK   66  A    between atoms: _191  and  _192
REMARK   67  A    between atoms: _195  and  _197
REMARK   68  A    between atoms: _197  and  _198
REMARK   69  A    between atoms: _197  and  _200
REMARK   70  A    between atoms: _203  and  _205
REMARK   71  A    between atoms: _205  and  _206
REMARK   72  A    between atoms: _205  and  _208
REMARK   73  A    between atoms: _208  and  _209
REMARK   74  A    between atoms: _214  and  _216
REMARK   75  A    between atoms: _216  and  _217
REMARK   76  A    between atoms: _216  and  _219
REMARK   77  A    between atoms: _219  and  _220
REMARK   78  A    between atoms: _226  and  _228
REMARK   79  A    between atoms: _228  and  _229
REMARK   80  A    between atoms: _228  and  _231
REMARK   81  A    between atoms: _234  and  _236
REMARK   82  A    between atoms: _236  and  _237
REMARK   83  A    between atoms: _236  and  _239
REMARK   84  A    between atoms: _239  and  _240
REMARK   85  A    between atoms: _243  and  _245
REMARK   86  A    between atoms: _245  and  _246
REMARK   87  A    between atoms: _249  and  _251
REMARK   88  A    between atoms: _251  and  _252
REMARK   89  A    between atoms: _251  and  _254
REMARK   90  A    between atoms: _257  and  _259
REMARK   91  A    between atoms: _259  and  _260
REMARK   92  A    between atoms: _259  and  _262
REMARK   93  A    between atoms: _262  and  _263
REMARK   94  A    between atoms: _266  and  _268
REMARK   95  A    between atoms: _268  and  _269
REMARK   96  A    between atoms: _268  and  _271
REMARK   97  A    between atoms: _271  and  _272
REMARK   98  A    between atoms: _274  and  _276
REMARK   99  A    between atoms: _276  and  _277
REMARK  100  A    between atoms: _276  and  _279
REMARK  101  A    between atoms: _279  and  _280
REMARK  102  A    between atoms: _283  and  _285
REMARK  103  A    between atoms: _285  and  _286
REMARK  104  A    between atoms: _285  and  _288
REMARK  105  A    between atoms: _288  and  _289
REMARK  106  A    between atoms: _292  and  _294
REMARK  107  A    between atoms: _294  and  _295
REMARK  108  A    between atoms: _294  and  _297
REMARK  109  A    between atoms: _297  and  _298
REMARK  110  A    between atoms: _302  and  _303
REMARK  111  A    between atoms: _309  and  _310
REMARK  112  A    between atoms: _315  and  _317
REMARK  113  A    between atoms: _317  and  _318
REMARK  114  A    between atoms: _317  and  _320
REMARK  115  A    between atoms: _320  and  _321
REMARK  116  A    between atoms: _324  and  _326
REMARK  117  A    between atoms: _326  and  _327
REMARK  118  A    between atoms: _326  and  _329
REMARK  119  A    between atoms: _329  and  _330
REMARK  120  A    between atoms: _333  and  _335
REMARK  121  A    between atoms: _335  and  _336
REMARK  122  A    between atoms: _335  and  _338
REMARK  123  A    between atoms: _340  and  _342
REMARK  124  A    between atoms: _342  and  _343
REMARK  125  A    between atoms: _342  and  _345
REMARK  126  A    between atoms: _348  and  _350
REMARK  127  A    between atoms: _350  and  _351
REMARK  128  A    between atoms: _350  and  _353
REMARK  129  A    between atoms: _353  and  _354
REMARK  130  A    between atoms: _364  and  _366
REMARK  131  A    between atoms: _366  and  _367
REMARK  132  A    between atoms: _366  and  _369
REMARK  133  A    between atoms: _369  and  _370
REMARK  134  A    between atoms: _375  and  _377
REMARK  135  A    between atoms: _377  and  _378
REMARK  136  A    between atoms: _377  and  _380
REMARK  137  A    between atoms: _380  and  _381
REMARK  138  A    between atoms: _381  and  _382
REMARK  139  A    between atoms: _382  and  _383
REMARK                            x       y       z     vdW  Elec       q    Type
REMARK                         _______ _______ _______ _____ _____    ______ ____
ROOT
ATOM      1  C   CYS A   1      -6.095   7.211  24.165  0.00  0.00    +0.239 C 
ATOM      2  N   VAL A   2      -6.203   5.906  24.449  0.00  0.00    -0.298 N 
ATOM      3  H   VAL A   2      -5.426   5.400  24.920  0.00  0.00    +0.150 HD
ATOM      4  O   CYS A   1      -7.061   7.867  23.775  0.00  0.00    -0.274 OA
ENDROOT
BRANCH   1   5
ATOM      5  CA  CYS A   1      -4.725   7.848  24.334  0.00  0.00    +0.156 C 
BRANCH   5   6
ATOM      6  N   CYS A   1      -3.688   6.835  24.453  0.00  0.00    -0.237 NA
ATOM      7  H   CYS A   1      -3.674   6.083  23.735  0.00  0.00    +0.142 HD
ENDBRANCH   5   6
BRANCH   5   8
ATOM      8  CB  CYS A   1      -4.405   8.713  23.101  0.00  0.00    +0.095 C 
ATOM      9  SG  CYS A   1      -4.290   7.716  21.558  0.00  0.00    -0.080 S 
ENDBRANCH   5   8
ENDBRANCH   1   5
BRANCH   2  10
ATOM     10  CA  VAL A   2      -7.436   5.205  24.084  0.00  0.00    +0.137 C 
BRANCH  10  11
ATOM     11  CB  VAL A   2      -7.113   3.981  23.185  0.00  0.00    +0.026 C 
ATOM     12  CG2 VAL A   2      -8.368   3.204  22.815  0.00  0.00    +0.002 C 
ATOM     13  CG1 VAL A   2      -6.399   4.398  21.905  0.00  0.00    +0.002 C 
ENDBRANCH  10  11
BRANCH  10  14
ATOM     14  C   VAL A   2      -8.219   4.704  25.290  0.00  0.00    +0.227 C 
ATOM     15  O   VAL A   2      -7.584   4.091  26.164  0.00  0.00    -0.286 OA
ENDBRANCH  10  14
ENDBRANCH   2  10
TORSDOF 6
REMARK  Name = ../refined-set-2016/3daz/3daz_pocket.pdb
REMARK  139 active torsions:
REMARK  status: ('A' for Active; 'I' for Inactive)
REMARK    1  A    between atoms: _1  and  _3
REMARK    2  A    between atoms: _3  and  _4
REMARK    3  A    between atoms: _3  and  _6
REMARK    4  A    between atoms: _6  and  _7
REMARK    5  A    between atoms: _17  and  _19
REMARK    6  A    between atoms: _19  and  _20
REMARK    7  A    between atoms: _19  and  _22
REMARK    8  A    between atoms: _22  and  _23
REMARK    9  A    between atoms: _28  and  _29
REMARK   10  A    between atoms: _31  and  _33
REMARK   11  A    between atoms: _33  and  _34
REMARK   12  A    between atoms: _33  and  _36
REMARK   13  A    between atoms: _36  and  _37
REMARK   14  A    between atoms: _40  and  _41
REMARK   15  A    between atoms: _46  and  _48
REMARK   16  A    between atoms: _48  and  _49
REMARK   17  A    between atoms: _48  and  _51
REMARK   18  A    between atoms: _51  and  _52
REMARK   19  A    between atoms: _57  and  _59
REMARK   20  A    between atoms: _59  and  _60
REMARK   21  A    between atoms: _59  and  _62
REMARK   22  A    between atoms: _62  and  _63
REMARK   23  A    between atoms: _68  and  _70
REMARK   24  A    between atoms: _70  and  _71
REMARK   25  A    between atoms: _70  and  _73
REMARK   26  A    between atoms: _73  and  _74
REMARK   27  A    between atoms: _77  and  _79
REMARK   28  A    between atoms: _79  and  _80
REMARK   29  A    between atoms: _79  and  _82
REMARK   30  A    between atoms: _82  and  _83
REMARK   31  A    between atoms: _83  and  _84
REMARK   32  A    between atoms: _89  and  _91
REMARK   33  A    between atoms: _91  and  _92
REMARK   34  A    between atoms: _91  and  _94
REMARK   35  A    between atoms: _94  and  _95
REMARK   36  A    between atoms: _101  and  _103
REMARK   37  A    between atoms: _114  and  _117
REMARK   38  A    between atoms: _117  and  _118
REMARK   39  A    between atoms: _126  and  _127
REMARK   40  A    between atoms: _135  and  _137
REMARK   41  A    between atoms: _137  and  _138
REMARK   42  A    between atoms: _137  and  _140
REMARK   43  A    between atoms: _140  and  _141
REMARK   44  A    between atoms: _141  and  _142
REMARK   45  A    between atoms: _145  and  _147
REMARK   46  A    between atoms: _147  and  _148
REMARK   47  A    between atoms: _147  and  _150
REMARK   48  A    between atoms: _150  and  _151
REMARK   49  A    between atoms: _156  and  _158
REMARK   50  A    between atoms: _158  and  _159
REMARK   51  A    between atoms: _158  and  _161
REMARK   52  A    between atoms: _161  and  _162
REMARK   53  A    between atoms: _162  and  _163
REMARK   54  A    between atoms: _166  and  _168
REMARK   55  A    between atoms: _168  and  _169
REMARK   56  A    between atoms: _168  and  _171
REMARK   57  A    between atoms: _171  and  _172
REMARK   58  A    between atoms: _175  and  _177
REMARK   59  A    between atoms: _177  and  _178
REMARK   60  A    between atoms: _177  and  _180
REMARK   61  A    between atoms: _180  and  _181
REMARK   62  A    between atoms: _182  and  ZN_392
REMARK   63  A    between atoms: _186  and  _188
REMARK   64  A    between atoms: _188  and  _189
REMARK   65  A    between atoms: _188  and  _191
REMARK   66  A    between atoms: _191  and  _192
REMARK   67  A    between atoms: _195  and  _197
REMARK   68  A    between atoms: _197  and  _198
REMARK   69  A    between atoms: _197  and  _200
REMARK   70  A    between atoms: _203  and  _205
REMARK   71  A    between atoms: _205  and  _206
REMARK   72  A    between atoms: _205  and  _208
REMARK   73  A    between atoms: _208  and  _209
REMARK   74  A    between atoms: _214  and  _216
REMARK   75  A    between atoms: _216  and  _217
REMARK   76  A    between atoms: _216  and  _219
REMARK   77  A    between atoms: _219  and  _220
REMARK   78  A    between atoms: _226  and  _228
REMARK   79  A    between atoms: _228  and  _229
REMARK   80  A    between atoms: _228  and  _231
REMARK   81  A    between atoms: _234  and  _236
REMARK   82  A    between atoms: _236  and  _237
REMARK   83  A    between atoms: _236  and  _239
REMARK   84  A    between atoms: _239  and  _240
REMARK   85  A    between atoms: _243  and  _245
REMARK   86  A    between atoms: _245  and  _246
REMARK   87  A    between atoms: _249  and  _251
REMARK   88  A    between atoms: _251  and  _252
REMARK   89  A    between atoms: _251  and  _254
REMARK   90  A    between atoms: _257  and  _259
REMARK   91  A    between atoms: _259  and  _260
REMARK   92  A    between atoms: _259  and  _262
REMARK   93  A    between atoms: _262  and  _263
REMARK   94  A    between atoms: _266  and  _268
REMARK   95  A    between atoms: _268  and  _269
REMARK   96  A    between atoms: _268  and  _271
REMARK   97  A    between atoms: _271  and  _272
REMARK   98  A    between atoms: _274  and  _276
REMARK   99  A    between atoms: _276  and  _277
REMARK  100  A    between atoms: _276  and  _279
REMARK  101  A    between atoms: _279  and  _280
REMARK  102  A    between atoms: _283  and  _285
REMARK  103  A    between atoms: _285  and  _286
REMARK  104  A    between atoms: _285  and  _288
REMARK  105  A    between atoms: _288  and  _289
REMARK  106  A    between atoms: _292  and  _294
REMARK  107  A    between atoms: _294  and  _295
REMARK  108  A    between atoms: _294  and  _297
REMARK  109  A    between atoms: _297  and  _298
REMARK  110  A    between atoms: _302  and  _303
REMARK  111  A    between atoms: _309  and  _310
REMARK  112  A    between atoms: _315  and  _317
REMARK  113  A    between atoms: _317  and  _318
REMARK  114  A    between atoms: _317  and  _320
REMARK  115  A    between atoms: _320  and  _321
REMARK  116  A    between atoms: _324  and  _326
REMARK  117  A    between atoms: _326  and  _327
REMARK  118  A    between atoms: _326  and  _329
REMARK  119  A    between atoms: _329  and  _330
REMARK  120  A    between atoms: _333  and  _335
REMARK  121  A    between atoms: _335  and  _336
REMARK  122  A    between atoms: _335  and  _338
REMARK  123  A    between atoms: _340  and  _342
REMARK  124  A    between atoms: _342  and  _343
REMARK  125  A    between atoms: _342  and  _345
REMARK  126  A    between atoms: _348  and  _350
REMARK  127  A    between atoms: _350  and  _351
REMARK  128  A    between atoms: _350  and  _353
REMARK  129  A    between atoms: _353  and  _354
REMARK  130  A    between atoms: _364  and  _366
REMARK  131  A    between atoms: _366  and  _367
REMARK  132  A    between atoms: _366  and  _369
REMARK  133  A    between atoms: _369  and  _370
REMARK  134  A    between atoms: _375  and  _377
REMARK  135  A    between atoms: _377  and  _378
REMARK  136  A    between atoms: _377  and  _380
REMARK  137  A    between atoms: _380  and  _381
REMARK  138  A    between atoms: _381  and  _382
REMARK  139  A    between atoms: _382  and  _383
REMARK                            x       y       z     vdW  Elec       q    Type
REMARK                         _______ _______ _______ _____ _____    ______ ____
ROOT
ATOM      1  CG  TRP A   1      -8.894  -0.298  24.255  0.00  0.00    -0.002 A 
ATOM      2  CD1 TRP A   1      -7.660   0.244  24.451  0.00  0.00    +0.068 A 
ATOM      3  NE1 TRP A   1      -6.951   0.169  23.271  0.00  0.00    -0.352 N 
ATOM      4  HE1 TRP A   1      -5.980   0.516  23.135  0.00  0.00    +0.166 HD
ATOM      5  CE2 TRP A   1      -7.712  -0.429  22.307  0.00  0.00    +0.056 A 
ATOM      6  CZ2 TRP A   1      -7.392  -0.712  20.968  0.00  0.00    +0.017 A 
ATOM      7  CH2 TRP A   1      -8.388  -1.320  20.260  0.00  0.00    +0.001 A 
ATOM      8  CZ3 TRP A   1      -9.631  -1.644  20.806  0.00  0.00    +0.000 A 
ATOM      9  CE3 TRP A   1      -9.946  -1.365  22.123  0.00  0.00    +0.001 A 
ATOM     10  CD2 TRP A   1      -8.945  -0.742  22.876  0.00  0.00    +0.013 A 
ENDROOT
BRANCH   1  11
ATOM     11  CB  TRP A   1     -10.029  -0.451  25.220  0.00  0.00    +0.053 C 
BRANCH  11  12
ATOM     12  CA  TRP A   1     -11.041   0.712  25.033  0.00  0.00    +0.137 C 
BRANCH  12  13
ATOM     13  N   TRP A   1     -10.540   1.878  25.772  0.00  0.00    -0.239 NA
ATOM     14  H   TRP A   1      -9.898   1.771  26.583  0.00  0.00    +0.142 HD
ENDBRANCH  12  13
BRANCH  12  15
ATOM     15  C   TRP A   1     -12.390   0.255  25.538  0.00  0.00    +0.224 C 
ATOM     16  O   TRP A   1     -12.589   0.165  26.759  0.00  0.00    -0.287 OA
ENDBRANCH  12  15
ENDBRANCH  11  12
ENDBRANCH   1  11
TORSDOF 4
REMARK  Name = ../refined-set-2016/3daz/3daz_pocket.pdb
REMARK  139 active torsions:
REMARK  status: ('A' for Active; 'I' for Inactive)
REMARK    1  A    between atoms: _1  and  _3
REMARK    2  A    between atoms: _3  and  _4
REMARK    3  A    between atoms: _3  and  _6
REMARK    4  A    between atoms: _6  and  _7
REMARK    5  A    between atoms: _17  and  _19
REMARK    6  A    between atoms: _19  and  _20
REMARK    7  A    between atoms: _19  and  _22
REMARK    8  A    between atoms: _22  and  _23
REMARK    9  A    between atoms: _28  and  _29
REMARK   10  A    between atoms: _31  and  _33
REMARK   11  A    between atoms: _33  and  _34
REMARK   12  A    between atoms: _33  and  _36
REMARK   13  A    between atoms: _36  and  _37
REMARK   14  A    between atoms: _40  and  _41
REMARK   15  A    between atoms: _46  and  _48
REMARK   16  A    between atoms: _48  and  _49
REMARK   17  A    between atoms: _48  and  _51
REMARK   18  A    between atoms: _51  and  _52
REMARK   19  A    between atoms: _57  and  _59
REMARK   20  A    between atoms: _59  and  _60
REMARK   21  A    between atoms: _59  and  _62
REMARK   22  A    between atoms: _62  and  _63
REMARK   23  A    between atoms: _68  and  _70
REMARK   24  A    between atoms: _70  and  _71
REMARK   25  A    between atoms: _70  and  _73
REMARK   26  A    between atoms: _73  and  _74
REMARK   27  A    between atoms: _77  and  _79
REMARK   28  A    between atoms: _79  and  _80
REMARK   29  A    between atoms: _79  and  _82
REMARK   30  A    between atoms: _82  and  _83
REMARK   31  A    between atoms: _83  and  _84
REMARK   32  A    between atoms: _89  and  _91
REMARK   33  A    between atoms: _91  and  _92
REMARK   34  A    between atoms: _91  and  _94
REMARK   35  A    between atoms: _94  and  _95
REMARK   36  A    between atoms: _101  and  _103
REMARK   37  A    between atoms: _114  and  _117
REMARK   38  A    between atoms: _117  and  _118
REMARK   39  A    between atoms: _126  and  _127
REMARK   40  A    between atoms: _135  and  _137
REMARK   41  A    between atoms: _137  and  _138
REMARK   42  A    between atoms: _137  and  _140
REMARK   43  A    between atoms: _140  and  _141
REMARK   44  A    between atoms: _141  and  _142
REMARK   45  A    between atoms: _145  and  _147
REMARK   46  A    between atoms: _147  and  _148
REMARK   47  A    between atoms: _147  and  _150
REMARK   48  A    between atoms: _150  and  _151
REMARK   49  A    between atoms: _156  and  _158
REMARK   50  A    between atoms: _158  and  _159
REMARK   51  A    between atoms: _158  and  _161
REMARK   52  A    between atoms: _161  and  _162
REMARK   53  A    between atoms: _162  and  _163
REMARK   54  A    between atoms: _166  and  _168
REMARK   55  A    between atoms: _168  and  _169
REMARK   56  A    between atoms: _168  and  _171
REMARK   57  A    between atoms: _171  and  _172
REMARK   58  A    between atoms: _175  and  _177
REMARK   59  A    between atoms: _177  and  _178
REMARK   60  A    between atoms: _177  and  _180
REMARK   61  A    between atoms: _180  and  _181
REMARK   62  A    between atoms: _182  and  ZN_392
REMARK   63  A    between atoms: _186  and  _188
REMARK   64  A    between atoms: _188  and  _189
REMARK   65  A    between atoms: _188  and  _191
REMARK   66  A    between atoms: _191  and  _192
REMARK   67  A    between atoms: _195  and  _197
REMARK   68  A    between atoms: _197  and  _198
REMARK   69  A    between atoms: _197  and  _200
REMARK   70  A    between atoms: _203  and  _205
REMARK   71  A    between atoms: _205  and  _206
REMARK   72  A    between atoms: _205  and  _208
REMARK   73  A    between atoms: _208  and  _209
REMARK   74  A    between atoms: _214  and  _216
REMARK   75  A    between atoms: _216  and  _217
REMARK   76  A    between atoms: _216  and  _219
REMARK   77  A    between atoms: _219  and  _220
REMARK   78  A    between atoms: _226  and  _228
REMARK   79  A    between atoms: _228  and  _229
REMARK   80  A    between atoms: _228  and  _231
REMARK   81  A    between atoms: _234  and  _236
REMARK   82  A    between atoms: _236  and  _237
REMARK   83  A    between atoms: _236  and  _239
REMARK   84  A    between atoms: _239  and  _240
REMARK   85  A    between atoms: _243  and  _245
REMARK   86  A    between atoms: _245  and  _246
REMARK   87  A    between atoms: _249  and  _251
REMARK   88  A    between atoms: _251  and  _252
REMARK   89  A    between atoms: _251  and  _254
REMARK   90  A    between atoms: _257  and  _259
REMARK   91  A    between atoms: _259  and  _260
REMARK   92  A    between atoms: _259  and  _262
REMARK   93  A    between atoms: _262  and  _263
REMARK   94  A    between atoms: _266  and  _268
REMARK   95  A    between atoms: _268  and  _269
REMARK   96  A    between atoms: _268  and  _271
REMARK   97  A    between atoms: _271  and  _272
REMARK   98  A    between atoms: _274  and  _276
REMARK   99  A    between atoms: _276  and  _277
REMARK  100  A    between atoms: _276  and  _279
REMARK  101  A    between atoms: _279  and  _280
REMARK  102  A    between atoms: _283  and  _285
REMARK  103  A    between atoms: _285  and  _286
REMARK  104  A    between atoms: _285  and  _288
REMARK  105  A    between atoms: _288  and  _289
REMARK  106  A    between atoms: _292  and  _294
REMARK  107  A    between atoms: _294  and  _295
REMARK  108  A    between atoms: _294  and  _297
REMARK  109  A    between atoms: _297  and  _298
REMARK  110  A    between atoms: _302  and  _303
REMARK  111  A    between atoms: _309  and  _310
REMARK  112  A    between atoms: _315  and  _317
REMARK  113  A    between atoms: _317  and  _318
REMARK  114  A    between atoms: _317  and  _320
REMARK  115  A    between atoms: _320  and  _321
REMARK  116  A    between atoms: _324  and  _326
REMARK  117  A    between atoms: _326  and  _327
REMARK  118  A    between atoms: _326  and  _329
REMARK  119  A    between atoms: _329  and  _330
REMARK  120  A    between atoms: _333  and  _335
REMARK  121  A    between atoms: _335  and  _336
REMARK  122  A    between atoms: _335  and  _338
REMARK  123  A    between atoms: _340  and  _342
REMARK  124  A    between atoms: _342  and  _343
REMARK  125  A    between atoms: _342  and  _345
REMARK  126  A    between atoms: _348  and  _350
REMARK  127  A    between atoms: _350  and  _351
REMARK  128  A    between atoms: _350  and  _353
REMARK  129  A    between atoms: _353  and  _354
REMARK  130  A    between atoms: _364  and  _366
REMARK  131  A    between atoms: _366  and  _367
REMARK  132  A    between atoms: _366  and  _369
REMARK  133  A    between atoms: _369  and  _370
REMARK  134  A    between atoms: _375  and  _377
REMARK  135  A    between atoms: _377  and  _378
REMARK  136  A    between atoms: _377  and  _380
REMARK  137  A    between atoms: _380  and  _381
REMARK  138  A    between atoms: _381  and  _382
REMARK  139  A    between atoms: _382  and  _383
REMARK                            x       y       z     vdW  Elec       q    Type
REMARK                         _______ _______ _______ _____ _____    ______ ____
ROOT
ATOM      1  CB  ASN A   1      -2.006  -7.641  10.595  0.00  0.00    +0.110 C 
ENDROOT
BRANCH   1   2
ATOM      2  CG  ASN A   1      -3.486  -7.817  10.352  0.00  0.00    +0.221 C 
ATOM      3  OD1 ASN A   1      -4.187  -8.678  10.906  0.00  0.00    -0.275 OA
ATOM      4  ND2 ASN A   1      -4.052  -6.962   9.499  0.00  0.00    -0.329 N 
ATOM      5 HD21 ASN A   1      -5.072  -7.021   9.304  0.00  0.00    +0.145 HD
ATOM      6 HD22 ASN A   1      -3.474  -6.237   9.029  0.00  0.00    +0.145 HD
ENDBRANCH   1   2
BRANCH   1   7
ATOM      7  CA  ASN A   1      -1.454  -8.533  11.698  0.00  0.00    +0.142 C 
BRANCH   7   8
ATOM      8  N   ASN A   1      -1.860  -9.920  11.445  0.00  0.00    -0.239 NA
ATOM      9  H   ASN A   1      -2.791 -10.142  11.038  0.00  0.00    +0.142 HD
ENDBRANCH   7   8
BRANCH   7  10
ATOM     10  C   ASN A   1      -2.012  -8.094  13.052  0.00  0.00    +0.225 C 
ATOM     11  O   ASN A   1      -2.669  -7.061  13.178  0.00  0.00    -0.287 OA
ENDBRANCH   7  10
ENDBRANCH   1   7
TORSDOF 4
REMARK  Name = ../refined-set-2016/3daz/3daz_pocket.pdb
REMARK  139 active torsions:
REMARK  status: ('A' for Active; 'I' for Inactive)
REMARK    1  A    between atoms: _1  and  _3
REMARK    2  A    between atoms: _3  and  _4
REMARK    3  A    between atoms: _3  and  _6
REMARK    4  A    between atoms: _6  and  _7
REMARK    5  A    between atoms: _17  and  _19
REMARK    6  A    between atoms: _19  and  _20
REMARK    7  A    between atoms: _19  and  _22
REMARK    8  A    between atoms: _22  and  _23
REMARK    9  A    between atoms: _28  and  _29
REMARK   10  A    between atoms: _31  and  _33
REMARK   11  A    between atoms: _33  and  _34
REMARK   12  A    between atoms: _33  and  _36
REMARK   13  A    between atoms: _36  and  _37
REMARK   14  A    between atoms: _40  and  _41
REMARK   15  A    between atoms: _46  and  _48
REMARK   16  A    between atoms: _48  and  _49
REMARK   17  A    between atoms: _48  and  _51
REMARK   18  A    between atoms: _51  and  _52
REMARK   19  A    between atoms: _57  and  _59
REMARK   20  A    between atoms: _59  and  _60
REMARK   21  A    between atoms: _59  and  _62
REMARK   22  A    between atoms: _62  and  _63
REMARK   23  A    between atoms: _68  and  _70
REMARK   24  A    between atoms: _70  and  _71
REMARK   25  A    between atoms: _70  and  _73
REMARK   26  A    between atoms: _73  and  _74
REMARK   27  A    between atoms: _77  and  _79
REMARK   28  A    between atoms: _79  and  _80
REMARK   29  A    between atoms: _79  and  _82
REMARK   30  A    between atoms: _82  and  _83
REMARK   31  A    between atoms: _83  and  _84
REMARK   32  A    between atoms: _89  and  _91
REMARK   33  A    between atoms: _91  and  _92
REMARK   34  A    between atoms: _91  and  _94
REMARK   35  A    between atoms: _94  and  _95
REMARK   36  A    between atoms: _101  and  _103
REMARK   37  A    between atoms: _114  and  _117
REMARK   38  A    between atoms: _117  and  _118
REMARK   39  A    between atoms: _126  and  _127
REMARK   40  A    between atoms: _135  and  _137
REMARK   41  A    between atoms: _137  and  _138
REMARK   42  A    between atoms: _137  and  _140
REMARK   43  A    between atoms: _140  and  _141
REMARK   44  A    between atoms: _141  and  _142
REMARK   45  A    between atoms: _145  and  _147
REMARK   46  A    between atoms: _147  and  _148
REMARK   47  A    between atoms: _147  and  _150
REMARK   48  A    between atoms: _150  and  _151
REMARK   49  A    between atoms: _156  and  _158
REMARK   50  A    between atoms: _158  and  _159
REMARK   51  A    between atoms: _158  and  _161
REMARK   52  A    between atoms: _161  and  _162
REMARK   53  A    between atoms: _162  and  _163
REMARK   54  A    between atoms: _166  and  _168
REMARK   55  A    between atoms: _168  and  _169
REMARK   56  A    between atoms: _168  and  _171
REMARK   57  A    between atoms: _171  and  _172
REMARK   58  A    between atoms: _175  and  _177
REMARK   59  A    between atoms: _177  and  _178
REMARK   60  A    between atoms: _177  and  _180
REMARK   61  A    between atoms: _180  and  _181
REMARK   62  A    between atoms: _182  and  ZN_392
REMARK   63  A    between atoms: _186  and  _188
REMARK   64  A    between atoms: _188  and  _189
REMARK   65  A    between atoms: _188  and  _191
REMARK   66  A    between atoms: _191  and  _192
REMARK   67  A    between atoms: _195  and  _197
REMARK   68  A    between atoms: _197  and  _198
REMARK   69  A    between atoms: _197  and  _200
REMARK   70  A    between atoms: _203  and  _205
REMARK   71  A    between atoms: _205  and  _206
REMARK   72  A    between atoms: _205  and  _208
REMARK   73  A    between atoms: _208  and  _209
REMARK   74  A    between atoms: _214  and  _216
REMARK   75  A    between atoms: _216  and  _217
REMARK   76  A    between atoms: _216  and  _219
REMARK   77  A    between atoms: _219  and  _220
REMARK   78  A    between atoms: _226  and  _228
REMARK   79  A    between atoms: _228  and  _229
REMARK   80  A    between atoms: _228  and  _231
REMARK   81  A    between atoms: _234  and  _236
REMARK   82  A    between atoms: _236  and  _237
REMARK   83  A    between atoms: _236  and  _239
REMARK   84  A    between atoms: _239  and  _240
REMARK   85  A    between atoms: _243  and  _245
REMARK   86  A    between atoms: _245  and  _246
REMARK   87  A    between atoms: _249  and  _251
REMARK   88  A    between atoms: _251  and  _252
REMARK   89  A    between atoms: _251  and  _254
REMARK   90  A    between atoms: _257  and  _259
REMARK   91  A    between atoms: _259  and  _260
REMARK   92  A    between atoms: _259  and  _262
REMARK   93  A    between atoms: _262  and  _263
REMARK   94  A    between atoms: _266  and  _268
REMARK   95  A    between atoms: _268  and  _269
REMARK   96  A    between atoms: _268  and  _271
REMARK   97  A    between atoms: _271  and  _272
REMARK   98  A    between atoms: _274  and  _276
REMARK   99  A    between atoms: _276  and  _277
REMARK  100  A    between atoms: _276  and  _279
REMARK  101  A    between atoms: _279  and  _280
REMARK  102  A    between atoms: _283  and  _285
REMARK  103  A    between atoms: _285  and  _286
REMARK  104  A    between atoms: _285  and  _288
REMARK  105  A    between atoms: _288  and  _289
REMARK  106  A    between atoms: _292  and  _294
REMARK  107  A    between atoms: _294  and  _295
REMARK  108  A    between atoms: _294  and  _297
REMARK  109  A    between atoms: _297  and  _298
REMARK  110  A    between atoms: _302  and  _303
REMARK  111  A    between atoms: _309  and  _310
REMARK  112  A    between atoms: _315  and  _317
REMARK  113  A    between atoms: _317  and  _318
REMARK  114  A    between atoms: _317  and  _320
REMARK  115  A    between atoms: _320  and  _321
REMARK  116  A    between atoms: _324  and  _326
REMARK  117  A    between atoms: _326  and  _327
REMARK  118  A    between atoms: _326  and  _329
REMARK  119  A    between atoms: _329  and  _330
REMARK  120  A    between atoms: _333  and  _335
REMARK  121  A    between atoms: _335  and  _336
REMARK  122  A    between atoms: _335  and  _338
REMARK  123  A    between atoms: _340  and  _342
REMARK  124  A    between atoms: _342  and  _343
REMARK  125  A    between atoms: _342  and  _345
REMARK  126  A    between atoms: _348  and  _350
REMARK  127  A    between atoms: _350  and  _351
REMARK  128  A    between atoms: _350  and  _353
REMARK  129  A    between atoms: _353  and  _354
REMARK  130  A    between atoms: _364  and  _366
REMARK  131  A    between atoms: _366  and  _367
REMARK  132  A    between atoms: _366  and  _369
REMARK  133  A    between atoms: _369  and  _370
REMARK  134  A    between atoms: _375  and  _377
REMARK  135  A    between atoms: _377  and  _378
REMARK  136  A    between atoms: _377  and  _380
REMARK  137  A    between atoms: _380  and  _381
REMARK  138  A    between atoms: _381  and  _382
REMARK  139  A    between atoms: _382  and  _383
REMARK                            x       y       z     vdW  Elec       q    Type
REMARK                         _______ _______ _______ _____ _____    ______ ____
ROOT
ATOM      1  NE  ARG A   1       2.088  -4.132  21.244  0.00  0.00    -0.265 N 
ATOM      2  CZ  ARG A   1       2.238  -3.116  22.084  0.00  0.00    +0.342 C 
ATOM      3  NH2 ARG A   1       3.411  -2.875  22.639  0.00  0.00    -0.292 N 
ATOM      4 HH21 ARG A   1       3.521  -2.077  23.297  0.00  0.00    +0.255 HD
ATOM      5 HH22 ARG A   1       4.225  -3.483  22.419  0.00  0.00    +0.255 HD
ATOM      6  NH1 ARG A   1       1.189  -2.336  22.369  0.00  0.00    -0.292 N 
ATOM      7 HH11 ARG A   1       1.298  -1.538  23.026  0.00  0.00    +0.255 HD
ATOM      8 HH12 ARG A   1       0.264  -2.528  21.933  0.00  0.00    +0.255 HD
ATOM      9  HE  ARG A   1       2.933  -4.704  21.043  0.00  0.00    +0.259 HD
ENDROOT
BRANCH   1  10
ATOM     10  CD  ARG A   1       0.850  -4.524  20.575  0.00  0.00    +0.174 C 
BRANCH  10  11
ATOM     11  CG  ARG A   1       0.974  -5.900  19.957  0.00  0.00    +0.045 C 
BRANCH  11  12
ATOM     12  CB  ARG A   1      -0.062  -6.144  18.879  0.00  0.00    +0.029 C 
BRANCH  12  13
ATOM     13  CA  ARG A   1      -0.179  -7.614  18.482  0.00  0.00    +0.133 C 
BRANCH  13  14
ATOM     14  N   ARG A   1      -1.160  -7.780  17.422  0.00  0.00    -0.239 NA
ATOM     15  H   ARG A   1      -2.051  -7.248  17.497  0.00  0.00    +0.142 HD
ENDBRANCH  13  14
BRANCH  13  16
ATOM     16  C   ARG A   1      -0.606  -8.491  19.649  0.00  0.00    +0.224 C 
ATOM     17  O   ARG A   1      -1.774  -8.531  19.999  0.00  0.00    -0.287 OA
ENDBRANCH  13  16
ENDBRANCH  12  13
ENDBRANCH  11  12
ENDBRANCH  10  11
ENDBRANCH   1  10
TORSDOF 6
REMARK  Name = ../refined-set-2016/3daz/3daz_pocket.pdb
REMARK  139 active torsions:
REMARK  status: ('A' for Active; 'I' for Inactive)
REMARK    1  A    between atoms: _1  and  _3
REMARK    2  A    between atoms: _3  and  _4
REMARK    3  A    between atoms: _3  and  _6
REMARK    4  A    between atoms: _6  and  _7
REMARK    5  A    between atoms: _17  and  _19
REMARK    6  A    between atoms: _19  and  _20
REMARK    7  A    between atoms: _19  and  _22
REMARK    8  A    between atoms: _22  and  _23
REMARK    9  A    between atoms: _28  and  _29
REMARK   10  A    between atoms: _31  and  _33
REMARK   11  A    between atoms: _33  and  _34
REMARK   12  A    between atoms: _33  and  _36
REMARK   13  A    between atoms: _36  and  _37
REMARK   14  A    between atoms: _40  and  _41
REMARK   15  A    between atoms: _46  and  _48
REMARK   16  A    between atoms: _48  and  _49
REMARK   17  A    between atoms: _48  and  _51
REMARK   18  A    between atoms: _51  and  _52
REMARK   19  A    between atoms: _57  and  _59
REMARK   20  A    between atoms: _59  and  _60
REMARK   21  A    between atoms: _59  and  _62
REMARK   22  A    between atoms: _62  and  _63
REMARK   23  A    between atoms: _68  and  _70
REMARK   24  A    between atoms: _70  and  _71
REMARK   25  A    between atoms: _70  and  _73
REMARK   26  A    between atoms: _73  and  _74
REMARK   27  A    between atoms: _77  and  _79
REMARK   28  A    between atoms: _79  and  _80
REMARK   29  A    between atoms: _79  and  _82
REMARK   30  A    between atoms: _82  and  _83
REMARK   31  A    between atoms: _83  and  _84
REMARK   32  A    between atoms: _89  and  _91
REMARK   33  A    between atoms: _91  and  _92
REMARK   34  A    between atoms: _91  and  _94
REMARK   35  A    between atoms: _94  and  _95
REMARK   36  A    between atoms: _101  and  _103
REMARK   37  A    between atoms: _114  and  _117
REMARK   38  A    between atoms: _117  and  _118
REMARK   39  A    between atoms: _126  and  _127
REMARK   40  A    between atoms: _135  and  _137
REMARK   41  A    between atoms: _137  and  _138
REMARK   42  A    between atoms: _137  and  _140
REMARK   43  A    between atoms: _140  and  _141
REMARK   44  A    between atoms: _141  and  _142
REMARK   45  A    between atoms: _145  and  _147
REMARK   46  A    between atoms: _147  and  _148
REMARK   47  A    between atoms: _147  and  _150
REMARK   48  A    between atoms: _150  and  _151
REMARK   49  A    between atoms: _156  and  _158
REMARK   50  A    between atoms: _158  and  _159
REMARK   51  A    between atoms: _158  and  _161
REMARK   52  A    between atoms: _161  and  _162
REMARK   53  A    between atoms: _162  and  _163
REMARK   54  A    between atoms: _166  and  _168
REMARK   55  A    between atoms: _168  and  _169
REMARK   56  A    between atoms: _168  and  _171
REMARK   57  A    between atoms: _171  and  _172
REMARK   58  A    between atoms: _175  and  _177
REMARK   59  A    between atoms: _177  and  _178
REMARK   60  A    between atoms: _177  and  _180
REMARK   61  A    between atoms: _180  and  _181
REMARK   62  A    between atoms: _182  and  ZN_392
REMARK   63  A    between atoms: _186  and  _188
REMARK   64  A    between atoms: _188  and  _189
REMARK   65  A    between atoms: _188  and  _191
REMARK   66  A    between atoms: _191  and  _192
REMARK   67  A    between atoms: _195  and  _197
REMARK   68  A    between atoms: _197  and  _198
REMARK   69  A    between atoms: _197  and  _200
REMARK   70  A    between atoms: _203  and  _205
REMARK   71  A    between atoms: _205  and  _206
REMARK   72  A    between atoms: _205  and  _208
REMARK   73  A    between atoms: _208  and  _209
REMARK   74  A    between atoms: _214  and  _216
REMARK   75  A    between atoms: _216  and  _217
REMARK   76  A    between atoms: _216  and  _219
REMARK   77  A    between atoms: _219  and  _220
REMARK   78  A    between atoms: _226  and  _228
REMARK   79  A    between atoms: _228  and  _229
REMARK   80  A    between atoms: _228  and  _231
REMARK   81  A    between atoms: _234  and  _236
REMARK   82  A    between atoms: _236  and  _237
REMARK   83  A    between atoms: _236  and  _239
REMARK   84  A    between atoms: _239  and  _240
REMARK   85  A    between atoms: _243  and  _245
REMARK   86  A    between atoms: _245  and  _246
REMARK   87  A    between atoms: _249  and  _251
REMARK   88  A    between atoms: _251  and  _252
REMARK   89  A    between atoms: _251  and  _254
REMARK   90  A    between atoms: _257  and  _259
REMARK   91  A    between atoms: _259  and  _260
REMARK   92  A    between atoms: _259  and  _262
REMARK   93  A    between atoms: _262  and  _263
REMARK   94  A    between atoms: _266  and  _268
REMARK   95  A    between atoms: _268  and  _269
REMARK   96  A    between atoms: _268  and  _271
REMARK   97  A    between atoms: _271  and  _272
REMARK   98  A    between atoms: _274  and  _276
REMARK   99  A    between atoms: _276  and  _277
REMARK  100  A    between atoms: _276  and  _279
REMARK  101  A    between atoms: _279  and  _280
REMARK  102  A    between atoms: _283  and  _285
REMARK  103  A    between atoms: _285  and  _286
REMARK  104  A    between atoms: _285  and  _288
REMARK  105  A    between atoms: _288  and  _289
REMARK  106  A    between atoms: _292  and  _294
REMARK  107  A    between atoms: _294  and  _295
REMARK  108  A    between atoms: _294  and  _297
REMARK  109  A    between atoms: _297  and  _298
REMARK  110  A    between atoms: _302  and  _303
REMARK  111  A    between atoms: _309  and  _310
REMARK  112  A    between atoms: _315  and  _317
REMARK  113  A    between atoms: _317  and  _318
REMARK  114  A    between atoms: _317  and  _320
REMARK  115  A    between atoms: _320  and  _321
REMARK  116  A    between atoms: _324  and  _326
REMARK  117  A    between atoms: _326  and  _327
REMARK  118  A    between atoms: _326  and  _329
REMARK  119  A    between atoms: _329  and  _330
REMARK  120  A    between atoms: _333  and  _335
REMARK  121  A    between atoms: _335  and  _336
REMARK  122  A    between atoms: _335  and  _338
REMARK  123  A    between atoms: _340  and  _342
REMARK  124  A    between atoms: _342  and  _343
REMARK  125  A    between atoms: _342  and  _345
REMARK  126  A    between atoms: _348  and  _350
REMARK  127  A    between atoms: _350  and  _351
REMARK  128  A    between atoms: _350  and  _353
REMARK  129  A    between atoms: _353  and  _354
REMARK  130  A    between atoms: _364  and  _366
REMARK  131  A    between atoms: _366  and  _367
REMARK  132  A    between atoms: _366  and  _369
REMARK  133  A    between atoms: _369  and  _370
REMARK  134  A    between atoms: _375  and  _377
REMARK  135  A    between atoms: _377  and  _378
REMARK  136  A    between atoms: _377  and  _380
REMARK  137  A    between atoms: _380  and  _381
REMARK  138  A    between atoms: _381  and  _382
REMARK  139  A    between atoms: _382  and  _383
REMARK                            x       y       z     vdW  Elec       q    Type
REMARK                         _______ _______ _______ _____ _____    ______ ____
ROOT
ATOM      1  O   HOH     1      -1.335  -4.446  15.916  0.00  0.00    +0.000 OA
ENDROOT
TORSDOF 0
REMARK  Name = ../refined-set-2016/3daz/3daz_pocket.pdb
REMARK  139 active torsions:
REMARK  status: ('A' for Active; 'I' for Inactive)
REMARK    1  A    between atoms: _1  and  _3
REMARK    2  A    between atoms: _3  and  _4
REMARK    3  A    between atoms: _3  and  _6
REMARK    4  A    between atoms: _6  and  _7
REMARK    5  A    between atoms: _17  and  _19
REMARK    6  A    between atoms: _19  and  _20
REMARK    7  A    between atoms: _19  and  _22
REMARK    8  A    between atoms: _22  and  _23
REMARK    9  A    between atoms: _28  and  _29
REMARK   10  A    between atoms: _31  and  _33
REMARK   11  A    between atoms: _33  and  _34
REMARK   12  A    between atoms: _33  and  _36
REMARK   13  A    between atoms: _36  and  _37
REMARK   14  A    between atoms: _40  and  _41
REMARK   15  A    between atoms: _46  and  _48
REMARK   16  A    between atoms: _48  and  _49
REMARK   17  A    between atoms: _48  and  _51
REMARK   18  A    between atoms: _51  and  _52
REMARK   19  A    between atoms: _57  and  _59
REMARK   20  A    between atoms: _59  and  _60
REMARK   21  A    between atoms: _59  and  _62
REMARK   22  A    between atoms: _62  and  _63
REMARK   23  A    between atoms: _68  and  _70
REMARK   24  A    between atoms: _70  and  _71
REMARK   25  A    between atoms: _70  and  _73
REMARK   26  A    between atoms: _73  and  _74
REMARK   27  A    between atoms: _77  and  _79
REMARK   28  A    between atoms: _79  and  _80
REMARK   29  A    between atoms: _79  and  _82
REMARK   30  A    between atoms: _82  and  _83
REMARK   31  A    between atoms: _83  and  _84
REMARK   32  A    between atoms: _89  and  _91
REMARK   33  A    between atoms: _91  and  _92
REMARK   34  A    between atoms: _91  and  _94
REMARK   35  A    between atoms: _94  and  _95
REMARK   36  A    between atoms: _101  and  _103
REMARK   37  A    between atoms: _114  and  _117
REMARK   38  A    between atoms: _117  and  _118
REMARK   39  A    between atoms: _126  and  _127
REMARK   40  A    between atoms: _135  and  _137
REMARK   41  A    between atoms: _137  and  _138
REMARK   42  A    between atoms: _137  and  _140
REMARK   43  A    between atoms: _140  and  _141
REMARK   44  A    between atoms: _141  and  _142
REMARK   45  A    between atoms: _145  and  _147
REMARK   46  A    between atoms: _147  and  _148
REMARK   47  A    between atoms: _147  and  _150
REMARK   48  A    between atoms: _150  and  _151
REMARK   49  A    between atoms: _156  and  _158
REMARK   50  A    between atoms: _158  and  _159
REMARK   51  A    between atoms: _158  and  _161
REMARK   52  A    between atoms: _161  and  _162
REMARK   53  A    between atoms: _162  and  _163
REMARK   54  A    between atoms: _166  and  _168
REMARK   55  A    between atoms: _168  and  _169
REMARK   56  A    between atoms: _168  and  _171
REMARK   57  A    between atoms: _171  and  _172
REMARK   58  A    between atoms: _175  and  _177
REMARK   59  A    between atoms: _177  and  _178
REMARK   60  A    between atoms: _177  and  _180
REMARK   61  A    between atoms: _180  and  _181
REMARK   62  A    between atoms: _182  and  ZN_392
REMARK   63  A    between atoms: _186  and  _188
REMARK   64  A    between atoms: _188  and  _189
REMARK   65  A    between atoms: _188  and  _191
REMARK   66  A    between atoms: _191  and  _192
REMARK   67  A    between atoms: _195  and  _197
REMARK   68  A    between atoms: _197  and  _198
REMARK   69  A    between atoms: _197  and  _200
REMARK   70  A    between atoms: _203  and  _205
REMARK   71  A    between atoms: _205  and  _206
REMARK   72  A    between atoms: _205  and  _208
REMARK   73  A    between atoms: _208  and  _209
REMARK   74  A    between atoms: _214  and  _216
REMARK   75  A    between atoms: _216  and  _217
REMARK   76  A    between atoms: _216  and  _219
REMARK   77  A    between atoms: _219  and  _220
REMARK   78  A    between atoms: _226  and  _228
REMARK   79  A    between atoms: _228  and  _229
REMARK   80  A    between atoms: _228  and  _231
REMARK   81  A    between atoms: _234  and  _236
REMARK   82  A    between atoms: _236  and  _237
REMARK   83  A    between atoms: _236  and  _239
REMARK   84  A    between atoms: _239  and  _240
REMARK   85  A    between atoms: _243  and  _245
REMARK   86  A    between atoms: _245  and  _246
REMARK   87  A    between atoms: _249  and  _251
REMARK   88  A    between atoms: _251  and  _252
REMARK   89  A    between atoms: _251  and  _254
REMARK   90  A    between atoms: _257  and  _259
REMARK   91  A    between atoms: _259  and  _260
REMARK   92  A    between atoms: _259  and  _262
REMARK   93  A    between atoms: _262  and  _263
REMARK   94  A    between atoms: _266  and  _268
REMARK   95  A    between atoms: _268  and  _269
REMARK   96  A    between atoms: _268  and  _271
REMARK   97  A    between atoms: _271  and  _272
REMARK   98  A    between atoms: _274  and  _276
REMARK   99  A    between atoms: _276  and  _277
REMARK  100  A    between atoms: _276  and  _279
REMARK  101  A    between atoms: _279  and  _280
REMARK  102  A    between atoms: _283  and  _285
REMARK  103  A    between atoms: _285  and  _286
REMARK  104  A    between atoms: _285  and  _288
REMARK  105  A    between atoms: _288  and  _289
REMARK  106  A    between atoms: _292  and  _294
REMARK  107  A    between atoms: _294  and  _295
REMARK  108  A    between atoms: _294  and  _297
REMARK  109  A    between atoms: _297  and  _298
REMARK  110  A    between atoms: _302  and  _303
REMARK  111  A    between atoms: _309  and  _310
REMARK  112  A    between atoms: _315  and  _317
REMARK  113  A    between atoms: _317  and  _318
REMARK  114  A    between atoms: _317  and  _320
REMARK  115  A    between atoms: _320  and  _321
REMARK  116  A    between atoms: _324  and  _326
REMARK  117  A    between atoms: _326  and  _327
REMARK  118  A    between atoms: _326  and  _329
REMARK  119  A    between atoms: _329  and  _330
REMARK  120  A    between atoms: _333  and  _335
REMARK  121  A    between atoms: _335  and  _336
REMARK  122  A    between atoms: _335  and  _338
REMARK  123  A    between atoms: _340  and  _342
REMARK  124  A    between atoms: _342  and  _343
REMARK  125  A    between atoms: _342  and  _345
REMARK  126  A    between atoms: _348  and  _350
REMARK  127  A    between atoms: _350  and  _351
REMARK  128  A    between atoms: _350  and  _353
REMARK  129  A    between atoms: _353  and  _354
REMARK  130  A    between atoms: _364  and  _366
REMARK  131  A    between atoms: _366  and  _367
REMARK  132  A    between atoms: _366  and  _369
REMARK  133  A    between atoms: _369  and  _370
REMARK  134  A    between atoms: _375  and  _377
REMARK  135  A    between atoms: _377  and  _378
REMARK  136  A    between atoms: _377  and  _380
REMARK  137  A    between atoms: _380  and  _381
REMARK  138  A    between atoms: _381  and  _382
REMARK  139  A    between atoms: _382  and  _383
REMARK                            x       y       z     vdW  Elec       q    Type
REMARK                         _______ _______ _______ _____ _____    ______ ____
ROOT
ATOM      1  O   HOH     1      -2.658  -3.571  11.666  0.00  0.00    +0.000 OA
ENDROOT
TORSDOF 0
REMARK  Name = ../refined-set-2016/3daz/3daz_pocket.pdb
REMARK  139 active torsions:
REMARK  status: ('A' for Active; 'I' for Inactive)
REMARK    1  A    between atoms: _1  and  _3
REMARK    2  A    between atoms: _3  and  _4
REMARK    3  A    between atoms: _3  and  _6
REMARK    4  A    between atoms: _6  and  _7
REMARK    5  A    between atoms: _17  and  _19
REMARK    6  A    between atoms: _19  and  _20
REMARK    7  A    between atoms: _19  and  _22
REMARK    8  A    between atoms: _22  and  _23
REMARK    9  A    between atoms: _28  and  _29
REMARK   10  A    between atoms: _31  and  _33
REMARK   11  A    between atoms: _33  and  _34
REMARK   12  A    between atoms: _33  and  _36
REMARK   13  A    between atoms: _36  and  _37
REMARK   14  A    between atoms: _40  and  _41
REMARK   15  A    between atoms: _46  and  _48
REMARK   16  A    between atoms: _48  and  _49
REMARK   17  A    between atoms: _48  and  _51
REMARK   18  A    between atoms: _51  and  _52
REMARK   19  A    between atoms: _57  and  _59
REMARK   20  A    between atoms: _59  and  _60
REMARK   21  A    between atoms: _59  and  _62
REMARK   22  A    between atoms: _62  and  _63
REMARK   23  A    between atoms: _68  and  _70
REMARK   24  A    between atoms: _70  and  _71
REMARK   25  A    between atoms: _70  and  _73
REMARK   26  A    between atoms: _73  and  _74
REMARK   27  A    between atoms: _77  and  _79
REMARK   28  A    between atoms: _79  and  _80
REMARK   29  A    between atoms: _79  and  _82
REMARK   30  A    between atoms: _82  and  _83
REMARK   31  A    between atoms: _83  and  _84
REMARK   32  A    between atoms: _89  and  _91
REMARK   33  A    between atoms: _91  and  _92
REMARK   34  A    between atoms: _91  and  _94
REMARK   35  A    between atoms: _94  and  _95
REMARK   36  A    between atoms: _101  and  _103
REMARK   37  A    between atoms: _114  and  _117
REMARK   38  A    between atoms: _117  and  _118
REMARK   39  A    between atoms: _126  and  _127
REMARK   40  A    between atoms: _135  and  _137
REMARK   41  A    between atoms: _137  and  _138
REMARK   42  A    between atoms: _137  and  _140
REMARK   43  A    between atoms: _140  and  _141
REMARK   44  A    between atoms: _141  and  _142
REMARK   45  A    between atoms: _145  and  _147
REMARK   46  A    between atoms: _147  and  _148
REMARK   47  A    between atoms: _147  and  _150
REMARK   48  A    between atoms: _150  and  _151
REMARK   49  A    between atoms: _156  and  _158
REMARK   50  A    between atoms: _158  and  _159
REMARK   51  A    between atoms: _158  and  _161
REMARK   52  A    between atoms: _161  and  _162
REMARK   53  A    between atoms: _162  and  _163
REMARK   54  A    between atoms: _166  and  _168
REMARK   55  A    between atoms: _168  and  _169
REMARK   56  A    between atoms: _168  and  _171
REMARK   57  A    between atoms: _171  and  _172
REMARK   58  A    between atoms: _175  and  _177
REMARK   59  A    between atoms: _177  and  _178
REMARK   60  A    between atoms: _177  and  _180
REMARK   61  A    between atoms: _180  and  _181
REMARK   62  A    between atoms: _182  and  ZN_392
REMARK   63  A    between atoms: _186  and  _188
REMARK   64  A    between atoms: _188  and  _189
REMARK   65  A    between atoms: _188  and  _191
REMARK   66  A    between atoms: _191  and  _192
REMARK   67  A    between atoms: _195  and  _197
REMARK   68  A    between atoms: _197  and  _198
REMARK   69  A    between atoms: _197  and  _200
REMARK   70  A    between atoms: _203  and  _205
REMARK   71  A    between atoms: _205  and  _206
REMARK   72  A    between atoms: _205  and  _208
REMARK   73  A    between atoms: _208  and  _209
REMARK   74  A    between atoms: _214  and  _216
REMARK   75  A    between atoms: _216  and  _217
REMARK   76  A    between atoms: _216  and  _219
REMARK   77  A    between atoms: _219  and  _220
REMARK   78  A    between atoms: _226  and  _228
REMARK   79  A    between atoms: _228  and  _229
REMARK   80  A    between atoms: _228  and  _231
REMARK   81  A    between atoms: _234  and  _236
REMARK   82  A    between atoms: _236  and  _237
REMARK   83  A    between atoms: _236  and  _239
REMARK   84  A    between atoms: _239  and  _240
REMARK   85  A    between atoms: _243  and  _245
REMARK   86  A    between atoms: _245  and  _246
REMARK   87  A    between atoms: _249  and  _251
REMARK   88  A    between atoms: _251  and  _252
REMARK   89  A    between atoms: _251  and  _254
REMARK   90  A    between atoms: _257  and  _259
REMARK   91  A    between atoms: _259  and  _260
REMARK   92  A    between atoms: _259  and  _262
REMARK   93  A    between atoms: _262  and  _263
REMARK   94  A    between atoms: _266  and  _268
REMARK   95  A    between atoms: _268  and  _269
REMARK   96  A    between atoms: _268  and  _271
REMARK   97  A    between atoms: _271  and  _272
REMARK   98  A    between atoms: _274  and  _276
REMARK   99  A    between atoms: _276  and  _277
REMARK  100  A    between atoms: _276  and  _279
REMARK  101  A    between atoms: _279  and  _280
REMARK  102  A    between atoms: _283  and  _285
REMARK  103  A    between atoms: _285  and  _286
REMARK  104  A    between atoms: _285  and  _288
REMARK  105  A    between atoms: _288  and  _289
REMARK  106  A    between atoms: _292  and  _294
REMARK  107  A    between atoms: _294  and  _295
REMARK  108  A    between atoms: _294  and  _297
REMARK  109  A    between atoms: _297  and  _298
REMARK  110  A    between atoms: _302  and  _303
REMARK  111  A    between atoms: _309  and  _310
REMARK  112  A    between atoms: _315  and  _317
REMARK  113  A    between atoms: _317  and  _318
REMARK  114  A    between atoms: _317  and  _320
REMARK  115  A    between atoms: _320  and  _321
REMARK  116  A    between atoms: _324  and  _326
REMARK  117  A    between atoms: _326  and  _327
REMARK  118  A    between atoms: _326  and  _329
REMARK  119  A    between atoms: _329  and  _330
REMARK  120  A    between atoms: _333  and  _335
REMARK  121  A    between atoms: _335  and  _336
REMARK  122  A    between atoms: _335  and  _338
REMARK  123  A    between atoms: _340  and  _342
REMARK  124  A    between atoms: _342  and  _343
REMARK  125  A    between atoms: _342  and  _345
REMARK  126  A    between atoms: _348  and  _350
REMARK  127  A    between atoms: _350  and  _351
REMARK  128  A    between atoms: _350  and  _353
REMARK  129  A    between atoms: _353  and  _354
REMARK  130  A    between atoms: _364  and  _366
REMARK  131  A    between atoms: _366  and  _367
REMARK  132  A    between atoms: _366  and  _369
REMARK  133  A    between atoms: _369  and  _370
REMARK  134  A    between atoms: _375  and  _377
REMARK  135  A    between atoms: _377  and  _378
REMARK  136  A    between atoms: _377  and  _380
REMARK  137  A    between atoms: _380  and  _381
REMARK  138  A    between atoms: _381  and  _382
REMARK  139  A    between atoms: _382  and  _383
REMARK                            x       y       z     vdW  Elec       q    Type
REMARK                         _______ _______ _______ _____ _____    ______ ____
ROOT
ATOM      1  O   HOH     1      -7.204   5.560   6.740  0.00  0.00    +0.000 OA
ENDROOT
TORSDOF 0
REMARK  Name = ../refined-set-2016/3daz/3daz_pocket.pdb
REMARK  139 active torsions:
REMARK  status: ('A' for Active; 'I' for Inactive)
REMARK    1  A    between atoms: _1  and  _3
REMARK    2  A    between atoms: _3  and  _4
REMARK    3  A    between atoms: _3  and  _6
REMARK    4  A    between atoms: _6  and  _7
REMARK    5  A    between atoms: _17  and  _19
REMARK    6  A    between atoms: _19  and  _20
REMARK    7  A    between atoms: _19  and  _22
REMARK    8  A    between atoms: _22  and  _23
REMARK    9  A    between atoms: _28  and  _29
REMARK   10  A    between atoms: _31  and  _33
REMARK   11  A    between atoms: _33  and  _34
REMARK   12  A    between atoms: _33  and  _36
REMARK   13  A    between atoms: _36  and  _37
REMARK   14  A    between atoms: _40  and  _41
REMARK   15  A    between atoms: _46  and  _48
REMARK   16  A    between atoms: _48  and  _49
REMARK   17  A    between atoms: _48  and  _51
REMARK   18  A    between atoms: _51  and  _52
REMARK   19  A    between atoms: _57  and  _59
REMARK   20  A    between atoms: _59  and  _60
REMARK   21  A    between atoms: _59  and  _62
REMARK   22  A    between atoms: _62  and  _63
REMARK   23  A    between atoms: _68  and  _70
REMARK   24  A    between atoms: _70  and  _71
REMARK   25  A    between atoms: _70  and  _73
REMARK   26  A    between atoms: _73  and  _74
REMARK   27  A    between atoms: _77  and  _79
REMARK   28  A    between atoms: _79  and  _80
REMARK   29  A    between atoms: _79  and  _82
REMARK   30  A    between atoms: _82  and  _83
REMARK   31  A    between atoms: _83  and  _84
REMARK   32  A    between atoms: _89  and  _91
REMARK   33  A    between atoms: _91  and  _92
REMARK   34  A    between atoms: _91  and  _94
REMARK   35  A    between atoms: _94  and  _95
REMARK   36  A    between atoms: _101  and  _103
REMARK   37  A    between atoms: _114  and  _117
REMARK   38  A    between atoms: _117  and  _118
REMARK   39  A    between atoms: _126  and  _127
REMARK   40  A    between atoms: _135  and  _137
REMARK   41  A    between atoms: _137  and  _138
REMARK   42  A    between atoms: _137  and  _140
REMARK   43  A    between atoms: _140  and  _141
REMARK   44  A    between atoms: _141  and  _142
REMARK   45  A    between atoms: _145  and  _147
REMARK   46  A    between atoms: _147  and  _148
REMARK   47  A    between atoms: _147  and  _150
REMARK   48  A    between atoms: _150  and  _151
REMARK   49  A    between atoms: _156  and  _158
REMARK   50  A    between atoms: _158  and  _159
REMARK   51  A    between atoms: _158  and  _161
REMARK   52  A    between atoms: _161  and  _162
REMARK   53  A    between atoms: _162  and  _163
REMARK   54  A    between atoms: _166  and  _168
REMARK   55  A    between atoms: _168  and  _169
REMARK   56  A    between atoms: _168  and  _171
REMARK   57  A    between atoms: _171  and  _172
REMARK   58  A    between atoms: _175  and  _177
REMARK   59  A    between atoms: _177  and  _178
REMARK   60  A    between atoms: _177  and  _180
REMARK   61  A    between atoms: _180  and  _181
REMARK   62  A    between atoms: _182  and  ZN_392
REMARK   63  A    between atoms: _186  and  _188
REMARK   64  A    between atoms: _188  and  _189
REMARK   65  A    between atoms: _188  and  _191
REMARK   66  A    between atoms: _191  and  _192
REMARK   67  A    between atoms: _195  and  _197
REMARK   68  A    between atoms: _197  and  _198
REMARK   69  A    between atoms: _197  and  _200
REMARK   70  A    between atoms: _203  and  _205
REMARK   71  A    between atoms: _205  and  _206
REMARK   72  A    between atoms: _205  and  _208
REMARK   73  A    between atoms: _208  and  _209
REMARK   74  A    between atoms: _214  and  _216
REMARK   75  A    between atoms: _216  and  _217
REMARK   76  A    between atoms: _216  and  _219
REMARK   77  A    between atoms: _219  and  _220
REMARK   78  A    between atoms: _226  and  _228
REMARK   79  A    between atoms: _228  and  _229
REMARK   80  A    between atoms: _228  and  _231
REMARK   81  A    between atoms: _234  and  _236
REMARK   82  A    between atoms: _236  and  _237
REMARK   83  A    between atoms: _236  and  _239
REMARK   84  A    between atoms: _239  and  _240
REMARK   85  A    between atoms: _243  and  _245
REMARK   86  A    between atoms: _245  and  _246
REMARK   87  A    between atoms: _249  and  _251
REMARK   88  A    between atoms: _251  and  _252
REMARK   89  A    between atoms: _251  and  _254
REMARK   90  A    between atoms: _257  and  _259
REMARK   91  A    between atoms: _259  and  _260
REMARK   92  A    between atoms: _259  and  _262
REMARK   93  A    between atoms: _262  and  _263
REMARK   94  A    between atoms: _266  and  _268
REMARK   95  A    between atoms: _268  and  _269
REMARK   96  A    between atoms: _268  and  _271
REMARK   97  A    between atoms: _271  and  _272
REMARK   98  A    between atoms: _274  and  _276
REMARK   99  A    between atoms: _276  and  _277
REMARK  100  A    between atoms: _276  and  _279
REMARK  101  A    between atoms: _279  and  _280
REMARK  102  A    between atoms: _283  and  _285
REMARK  103  A    between atoms: _285  and  _286
REMARK  104  A    between atoms: _285  and  _288
REMARK  105  A    between atoms: _288  and  _289
REMARK  106  A    between atoms: _292  and  _294
REMARK  107  A    between atoms: _294  and  _295
REMARK  108  A    between atoms: _294  and  _297
REMARK  109  A    between atoms: _297  and  _298
REMARK  110  A    between atoms: _302  and  _303
REMARK  111  A    between atoms: _309  and  _310
REMARK  112  A    between atoms: _315  and  _317
REMARK  113  A    between atoms: _317  and  _318
REMARK  114  A    between atoms: _317  and  _320
REMARK  115  A    between atoms: _320  and  _321
REMARK  116  A    between atoms: _324  and  _326
REMARK  117  A    between atoms: _326  and  _327
REMARK  118  A    between atoms: _326  and  _329
REMARK  119  A    between atoms: _329  and  _330
REMARK  120  A    between atoms: _333  and  _335
REMARK  121  A    between atoms: _335  and  _336
REMARK  122  A    between atoms: _335  and  _338
REMARK  123  A    between atoms: _340  and  _342
REMARK  124  A    between atoms: _342  and  _343
REMARK  125  A    between atoms: _342  and  _345
REMARK  126  A    between atoms: _348  and  _350
REMARK  127  A    between atoms: _350  and  _351
REMARK  128  A    between atoms: _350  and  _353
REMARK  129  A    between atoms: _353  and  _354
REMARK  130  A    between atoms: _364  and  _366
REMARK  131  A    between atoms: _366  and  _367
REMARK  132  A    between atoms: _366  and  _369
REMARK  133  A    between atoms: _369  and  _370
REMARK  134  A    between atoms: _375  and  _377
REMARK  135  A    between atoms: _377  and  _378
REMARK  136  A    between atoms: _377  and  _380
REMARK  137  A    between atoms: _380  and  _381
REMARK  138  A    between atoms: _381  and  _382
REMARK  139  A    between atoms: _382  and  _383
REMARK                            x       y       z     vdW  Elec       q    Type
REMARK                         _______ _______ _______ _____ _____    ______ ____
ROOT
ATOM      1  O   HOH     1      -6.133   8.163   5.412  0.00  0.00    +0.000 OA
ENDROOT
TORSDOF 0
REMARK  Name = ../refined-set-2016/3daz/3daz_pocket.pdb
REMARK  139 active torsions:
REMARK  status: ('A' for Active; 'I' for Inactive)
REMARK    1  A    between atoms: _1  and  _3
REMARK    2  A    between atoms: _3  and  _4
REMARK    3  A    between atoms: _3  and  _6
REMARK    4  A    between atoms: _6  and  _7
REMARK    5  A    between atoms: _17  and  _19
REMARK    6  A    between atoms: _19  and  _20
REMARK    7  A    between atoms: _19  and  _22
REMARK    8  A    between atoms: _22  and  _23
REMARK    9  A    between atoms: _28  and  _29
REMARK   10  A    between atoms: _31  and  _33
REMARK   11  A    between atoms: _33  and  _34
REMARK   12  A    between atoms: _33  and  _36
REMARK   13  A    between atoms: _36  and  _37
REMARK   14  A    between atoms: _40  and  _41
REMARK   15  A    between atoms: _46  and  _48
REMARK   16  A    between atoms: _48  and  _49
REMARK   17  A    between atoms: _48  and  _51
REMARK   18  A    between atoms: _51  and  _52
REMARK   19  A    between atoms: _57  and  _59
REMARK   20  A    between atoms: _59  and  _60
REMARK   21  A    between atoms: _59  and  _62
REMARK   22  A    between atoms: _62  and  _63
REMARK   23  A    between atoms: _68  and  _70
REMARK   24  A    between atoms: _70  and  _71
REMARK   25  A    between atoms: _70  and  _73
REMARK   26  A    between atoms: _73  and  _74
REMARK   27  A    between atoms: _77  and  _79
REMARK   28  A    between atoms: _79  and  _80
REMARK   29  A    between atoms: _79  and  _82
REMARK   30  A    between atoms: _82  and  _83
REMARK   31  A    between atoms: _83  and  _84
REMARK   32  A    between atoms: _89  and  _91
REMARK   33  A    between atoms: _91  and  _92
REMARK   34  A    between atoms: _91  and  _94
REMARK   35  A    between atoms: _94  and  _95
REMARK   36  A    between atoms: _101  and  _103
REMARK   37  A    between atoms: _114  and  _117
REMARK   38  A    between atoms: _117  and  _118
REMARK   39  A    between atoms: _126  and  _127
REMARK   40  A    between atoms: _135  and  _137
REMARK   41  A    between atoms: _137  and  _138
REMARK   42  A    between atoms: _137  and  _140
REMARK   43  A    between atoms: _140  and  _141
REMARK   44  A    between atoms: _141  and  _142
REMARK   45  A    between atoms: _145  and  _147
REMARK   46  A    between atoms: _147  and  _148
REMARK   47  A    between atoms: _147  and  _150
REMARK   48  A    between atoms: _150  and  _151
REMARK   49  A    between atoms: _156  and  _158
REMARK   50  A    between atoms: _158  and  _159
REMARK   51  A    between atoms: _158  and  _161
REMARK   52  A    between atoms: _161  and  _162
REMARK   53  A    between atoms: _162  and  _163
REMARK   54  A    between atoms: _166  and  _168
REMARK   55  A    between atoms: _168  and  _169
REMARK   56  A    between atoms: _168  and  _171
REMARK   57  A    between atoms: _171  and  _172
REMARK   58  A    between atoms: _175  and  _177
REMARK   59  A    between atoms: _177  and  _178
REMARK   60  A    between atoms: _177  and  _180
REMARK   61  A    between atoms: _180  and  _181
REMARK   62  A    between atoms: _182  and  ZN_392
REMARK   63  A    between atoms: _186  and  _188
REMARK   64  A    between atoms: _188  and  _189
REMARK   65  A    between atoms: _188  and  _191
REMARK   66  A    between atoms: _191  and  _192
REMARK   67  A    between atoms: _195  and  _197
REMARK   68  A    between atoms: _197  and  _198
REMARK   69  A    between atoms: _197  and  _200
REMARK   70  A    between atoms: _203  and  _205
REMARK   71  A    between atoms: _205  and  _206
REMARK   72  A    between atoms: _205  and  _208
REMARK   73  A    between atoms: _208  and  _209
REMARK   74  A    between atoms: _214  and  _216
REMARK   75  A    between atoms: _216  and  _217
REMARK   76  A    between atoms: _216  and  _219
REMARK   77  A    between atoms: _219  and  _220
REMARK   78  A    between atoms: _226  and  _228
REMARK   79  A    between atoms: _228  and  _229
REMARK   80  A    between atoms: _228  and  _231
REMARK   81  A    between atoms: _234  and  _236
REMARK   82  A    between atoms: _236  and  _237
REMARK   83  A    between atoms: _236  and  _239
REMARK   84  A    between atoms: _239  and  _240
REMARK   85  A    between atoms: _243  and  _245
REMARK   86  A    between atoms: _245  and  _246
REMARK   87  A    between atoms: _249  and  _251
REMARK   88  A    between atoms: _251  and  _252
REMARK   89  A    between atoms: _251  and  _254
REMARK   90  A    between atoms: _257  and  _259
REMARK   91  A    between atoms: _259  and  _260
REMARK   92  A    between atoms: _259  and  _262
REMARK   93  A    between atoms: _262  and  _263
REMARK   94  A    between atoms: _266  and  _268
REMARK   95  A    between atoms: _268  and  _269
REMARK   96  A    between atoms: _268  and  _271
REMARK   97  A    between atoms: _271  and  _272
REMARK   98  A    between atoms: _274  and  _276
REMARK   99  A    between atoms: _276  and  _277
REMARK  100  A    between atoms: _276  and  _279
REMARK  101  A    between atoms: _279  and  _280
REMARK  102  A    between atoms: _283  and  _285
REMARK  103  A    between atoms: _285  and  _286
REMARK  104  A    between atoms: _285  and  _288
REMARK  105  A    between atoms: _288  and  _289
REMARK  106  A    between atoms: _292  and  _294
REMARK  107  A    between atoms: _294  and  _295
REMARK  108  A    between atoms: _294  and  _297
REMARK  109  A    between atoms: _297  and  _298
REMARK  110  A    between atoms: _302  and  _303
REMARK  111  A    between atoms: _309  and  _310
REMARK  112  A    between atoms: _315  and  _317
REMARK  113  A    between atoms: _317  and  _318
REMARK  114  A    between atoms: _317  and  _320
REMARK  115  A    between atoms: _320  and  _321
REMARK  116  A    between atoms: _324  and  _326
REMARK  117  A    between atoms: _326  and  _327
REMARK  118  A    between atoms: _326  and  _329
REMARK  119  A    between atoms: _329  and  _330
REMARK  120  A    between atoms: _333  and  _335
REMARK  121  A    between atoms: _335  and  _336
REMARK  122  A    between atoms: _335  and  _338
REMARK  123  A    between atoms: _340  and  _342
REMARK  124  A    between atoms: _342  and  _343
REMARK  125  A    between atoms: _342  and  _345
REMARK  126  A    between atoms: _348  and  _350
REMARK  127  A    between atoms: _350  and  _351
REMARK  128  A    between atoms: _350  and  _353
REMARK  129  A    between atoms: _353  and  _354
REMARK  130  A    between atoms: _364  and  _366
REMARK  131  A    between atoms: _366  and  _367
REMARK  132  A    between atoms: _366  and  _369
REMARK  133  A    between atoms: _369  and  _370
REMARK  134  A    between atoms: _375  and  _377
REMARK  135  A    between atoms: _377  and  _378
REMARK  136  A    between atoms: _377  and  _380
REMARK  137  A    between atoms: _380  and  _381
REMARK  138  A    between atoms: _381  and  _382
REMARK  139  A    between atoms: _382  and  _383
REMARK                            x       y       z     vdW  Elec       q    Type
REMARK                         _______ _______ _______ _____ _____    ______ ____
ROOT
ATOM      1  O   HOH     1      -5.167   0.220   9.964  0.00  0.00    +0.000 OA
ENDROOT
TORSDOF 0
REMARK  Name = ../refined-set-2016/3daz/3daz_pocket.pdb
REMARK  139 active torsions:
REMARK  status: ('A' for Active; 'I' for Inactive)
REMARK    1  A    between atoms: _1  and  _3
REMARK    2  A    between atoms: _3  and  _4
REMARK    3  A    between atoms: _3  and  _6
REMARK    4  A    between atoms: _6  and  _7
REMARK    5  A    between atoms: _17  and  _19
REMARK    6  A    between atoms: _19  and  _20
REMARK    7  A    between atoms: _19  and  _22
REMARK    8  A    between atoms: _22  and  _23
REMARK    9  A    between atoms: _28  and  _29
REMARK   10  A    between atoms: _31  and  _33
REMARK   11  A    between atoms: _33  and  _34
REMARK   12  A    between atoms: _33  and  _36
REMARK   13  A    between atoms: _36  and  _37
REMARK   14  A    between atoms: _40  and  _41
REMARK   15  A    between atoms: _46  and  _48
REMARK   16  A    between atoms: _48  and  _49
REMARK   17  A    between atoms: _48  and  _51
REMARK   18  A    between atoms: _51  and  _52
REMARK   19  A    between atoms: _57  and  _59
REMARK   20  A    between atoms: _59  and  _60
REMARK   21  A    between atoms: _59  and  _62
REMARK   22  A    between atoms: _62  and  _63
REMARK   23  A    between atoms: _68  and  _70
REMARK   24  A    between atoms: _70  and  _71
REMARK   25  A    between atoms: _70  and  _73
REMARK   26  A    between atoms: _73  and  _74
REMARK   27  A    between atoms: _77  and  _79
REMARK   28  A    between atoms: _79  and  _80
REMARK   29  A    between atoms: _79  and  _82
REMARK   30  A    between atoms: _82  and  _83
REMARK   31  A    between atoms: _83  and  _84
REMARK   32  A    between atoms: _89  and  _91
REMARK   33  A    between atoms: _91  and  _92
REMARK   34  A    between atoms: _91  and  _94
REMARK   35  A    between atoms: _94  and  _95
REMARK   36  A    between atoms: _101  and  _103
REMARK   37  A    between atoms: _114  and  _117
REMARK   38  A    between atoms: _117  and  _118
REMARK   39  A    between atoms: _126  and  _127
REMARK   40  A    between atoms: _135  and  _137
REMARK   41  A    between atoms: _137  and  _138
REMARK   42  A    between atoms: _137  and  _140
REMARK   43  A    between atoms: _140  and  _141
REMARK   44  A    between atoms: _141  and  _142
REMARK   45  A    between atoms: _145  and  _147
REMARK   46  A    between atoms: _147  and  _148
REMARK   47  A    between atoms: _147  and  _150
REMARK   48  A    between atoms: _150  and  _151
REMARK   49  A    between atoms: _156  and  _158
REMARK   50  A    between atoms: _158  and  _159
REMARK   51  A    between atoms: _158  and  _161
REMARK   52  A    between atoms: _161  and  _162
REMARK   53  A    between atoms: _162  and  _163
REMARK   54  A    between atoms: _166  and  _168
REMARK   55  A    between atoms: _168  and  _169
REMARK   56  A    between atoms: _168  and  _171
REMARK   57  A    between atoms: _171  and  _172
REMARK   58  A    between atoms: _175  and  _177
REMARK   59  A    between atoms: _177  and  _178
REMARK   60  A    between atoms: _177  and  _180
REMARK   61  A    between atoms: _180  and  _181
REMARK   62  A    between atoms: _182  and  ZN_392
REMARK   63  A    between atoms: _186  and  _188
REMARK   64  A    between atoms: _188  and  _189
REMARK   65  A    between atoms: _188  and  _191
REMARK   66  A    between atoms: _191  and  _192
REMARK   67  A    between atoms: _195  and  _197
REMARK   68  A    between atoms: _197  and  _198
REMARK   69  A    between atoms: _197  and  _200
REMARK   70  A    between atoms: _203  and  _205
REMARK   71  A    between atoms: _205  and  _206
REMARK   72  A    between atoms: _205  and  _208
REMARK   73  A    between atoms: _208  and  _209
REMARK   74  A    between atoms: _214  and  _216
REMARK   75  A    between atoms: _216  and  _217
REMARK   76  A    between atoms: _216  and  _219
REMARK   77  A    between atoms: _219  and  _220
REMARK   78  A    between atoms: _226  and  _228
REMARK   79  A    between atoms: _228  and  _229
REMARK   80  A    between atoms: _228  and  _231
REMARK   81  A    between atoms: _234  and  _236
REMARK   82  A    between atoms: _236  and  _237
REMARK   83  A    between atoms: _236  and  _239
REMARK   84  A    between atoms: _239  and  _240
REMARK   85  A    between atoms: _243  and  _245
REMARK   86  A    between atoms: _245  and  _246
REMARK   87  A    between atoms: _249  and  _251
REMARK   88  A    between atoms: _251  and  _252
REMARK   89  A    between atoms: _251  and  _254
REMARK   90  A    between atoms: _257  and  _259
REMARK   91  A    between atoms: _259  and  _260
REMARK   92  A    between atoms: _259  and  _262
REMARK   93  A    between atoms: _262  and  _263
REMARK   94  A    between atoms: _266  and  _268
REMARK   95  A    between atoms: _268  and  _269
REMARK   96  A    between atoms: _268  and  _271
REMARK   97  A    between atoms: _271  and  _272
REMARK   98  A    between atoms: _274  and  _276
REMARK   99  A    between atoms: _276  and  _277
REMARK  100  A    between atoms: _276  and  _279
REMARK  101  A    between atoms: _279  and  _280
REMARK  102  A    between atoms: _283  and  _285
REMARK  103  A    between atoms: _285  and  _286
REMARK  104  A    between atoms: _285  and  _288
REMARK  105  A    between atoms: _288  and  _289
REMARK  106  A    between atoms: _292  and  _294
REMARK  107  A    between atoms: _294  and  _295
REMARK  108  A    between atoms: _294  and  _297
REMARK  109  A    between atoms: _297  and  _298
REMARK  110  A    between atoms: _302  and  _303
REMARK  111  A    between atoms: _309  and  _310
REMARK  112  A    between atoms: _315  and  _317
REMARK  113  A    between atoms: _317  and  _318
REMARK  114  A    between atoms: _317  and  _320
REMARK  115  A    between atoms: _320  and  _321
REMARK  116  A    between atoms: _324  and  _326
REMARK  117  A    between atoms: _326  and  _327
REMARK  118  A    between atoms: _326  and  _329
REMARK  119  A    between atoms: _329  and  _330
REMARK  120  A    between atoms: _333  and  _335
REMARK  121  A    between atoms: _335  and  _336
REMARK  122  A    between atoms: _335  and  _338
REMARK  123  A    between atoms: _340  and  _342
REMARK  124  A    between atoms: _342  and  _343
REMARK  125  A    between atoms: _342  and  _345
REMARK  126  A    between atoms: _348  and  _350
REMARK  127  A    between atoms: _350  and  _351
REMARK  128  A    between atoms: _350  and  _353
REMARK  129  A    between atoms: _353  and  _354
REMARK  130  A    between atoms: _364  and  _366
REMARK  131  A    between atoms: _366  and  _367
REMARK  132  A    between atoms: _366  and  _369
REMARK  133  A    between atoms: _369  and  _370
REMARK  134  A    between atoms: _375  and  _377
REMARK  135  A    between atoms: _377  and  _378
REMARK  136  A    between atoms: _377  and  _380
REMARK  137  A    between atoms: _380  and  _381
REMARK  138  A    between atoms: _381  and  _382
REMARK  139  A    between atoms: _382  and  _383
REMARK                            x       y       z     vdW  Elec       q    Type
REMARK                         _______ _______ _______ _____ _____    ______ ____
ROOT
ATOM      1  O   HOH     1      -5.563   2.093  11.209  0.00  0.00    +0.000 OA
ENDROOT
TORSDOF 0
REMARK  Name = ../refined-set-2016/3daz/3daz_pocket.pdb
REMARK  139 active torsions:
REMARK  status: ('A' for Active; 'I' for Inactive)
REMARK    1  A    between atoms: _1  and  _3
REMARK    2  A    between atoms: _3  and  _4
REMARK    3  A    between atoms: _3  and  _6
REMARK    4  A    between atoms: _6  and  _7
REMARK    5  A    between atoms: _17  and  _19
REMARK    6  A    between atoms: _19  and  _20
REMARK    7  A    between atoms: _19  and  _22
REMARK    8  A    between atoms: _22  and  _23
REMARK    9  A    between atoms: _28  and  _29
REMARK   10  A    between atoms: _31  and  _33
REMARK   11  A    between atoms: _33  and  _34
REMARK   12  A    between atoms: _33  and  _36
REMARK   13  A    between atoms: _36  and  _37
REMARK   14  A    between atoms: _40  and  _41
REMARK   15  A    between atoms: _46  and  _48
REMARK   16  A    between atoms: _48  and  _49
REMARK   17  A    between atoms: _48  and  _51
REMARK   18  A    between atoms: _51  and  _52
REMARK   19  A    between atoms: _57  and  _59
REMARK   20  A    between atoms: _59  and  _60
REMARK   21  A    between atoms: _59  and  _62
REMARK   22  A    between atoms: _62  and  _63
REMARK   23  A    between atoms: _68  and  _70
REMARK   24  A    between atoms: _70  and  _71
REMARK   25  A    between atoms: _70  and  _73
REMARK   26  A    between atoms: _73  and  _74
REMARK   27  A    between atoms: _77  and  _79
REMARK   28  A    between atoms: _79  and  _80
REMARK   29  A    between atoms: _79  and  _82
REMARK   30  A    between atoms: _82  and  _83
REMARK   31  A    between atoms: _83  and  _84
REMARK   32  A    between atoms: _89  and  _91
REMARK   33  A    between atoms: _91  and  _92
REMARK   34  A    between atoms: _91  and  _94
REMARK   35  A    between atoms: _94  and  _95
REMARK   36  A    between atoms: _101  and  _103
REMARK   37  A    between atoms: _114  and  _117
REMARK   38  A    between atoms: _117  and  _118
REMARK   39  A    between atoms: _126  and  _127
REMARK   40  A    between atoms: _135  and  _137
REMARK   41  A    between atoms: _137  and  _138
REMARK   42  A    between atoms: _137  and  _140
REMARK   43  A    between atoms: _140  and  _141
REMARK   44  A    between atoms: _141  and  _142
REMARK   45  A    between atoms: _145  and  _147
REMARK   46  A    between atoms: _147  and  _148
REMARK   47  A    between atoms: _147  and  _150
REMARK   48  A    between atoms: _150  and  _151
REMARK   49  A    between atoms: _156  and  _158
REMARK   50  A    between atoms: _158  and  _159
REMARK   51  A    between atoms: _158  and  _161
REMARK   52  A    between atoms: _161  and  _162
REMARK   53  A    between atoms: _162  and  _163
REMARK   54  A    between atoms: _166  and  _168
REMARK   55  A    between atoms: _168  and  _169
REMARK   56  A    between atoms: _168  and  _171
REMARK   57  A    between atoms: _171  and  _172
REMARK   58  A    between atoms: _175  and  _177
REMARK   59  A    between atoms: _177  and  _178
REMARK   60  A    between atoms: _177  and  _180
REMARK   61  A    between atoms: _180  and  _181
REMARK   62  A    between atoms: _182  and  ZN_392
REMARK   63  A    between atoms: _186  and  _188
REMARK   64  A    between atoms: _188  and  _189
REMARK   65  A    between atoms: _188  and  _191
REMARK   66  A    between atoms: _191  and  _192
REMARK   67  A    between atoms: _195  and  _197
REMARK   68  A    between atoms: _197  and  _198
REMARK   69  A    between atoms: _197  and  _200
REMARK   70  A    between atoms: _203  and  _205
REMARK   71  A    between atoms: _205  and  _206
REMARK   72  A    between atoms: _205  and  _208
REMARK   73  A    between atoms: _208  and  _209
REMARK   74  A    between atoms: _214  and  _216
REMARK   75  A    between atoms: _216  and  _217
REMARK   76  A    between atoms: _216  and  _219
REMARK   77  A    between atoms: _219  and  _220
REMARK   78  A    between atoms: _226  and  _228
REMARK   79  A    between atoms: _228  and  _229
REMARK   80  A    between atoms: _228  and  _231
REMARK   81  A    between atoms: _234  and  _236
REMARK   82  A    between atoms: _236  and  _237
REMARK   83  A    between atoms: _236  and  _239
REMARK   84  A    between atoms: _239  and  _240
REMARK   85  A    between atoms: _243  and  _245
REMARK   86  A    between atoms: _245  and  _246
REMARK   87  A    between atoms: _249  and  _251
REMARK   88  A    between atoms: _251  and  _252
REMARK   89  A    between atoms: _251  and  _254
REMARK   90  A    between atoms: _257  and  _259
REMARK   91  A    between atoms: _259  and  _260
REMARK   92  A    between atoms: _259  and  _262
REMARK   93  A    between atoms: _262  and  _263
REMARK   94  A    between atoms: _266  and  _268
REMARK   95  A    between atoms: _268  and  _269
REMARK   96  A    between atoms: _268  and  _271
REMARK   97  A    between atoms: _271  and  _272
REMARK   98  A    between atoms: _274  and  _276
REMARK   99  A    between atoms: _276  and  _277
REMARK  100  A    between atoms: _276  and  _279
REMARK  101  A    between atoms: _279  and  _280
REMARK  102  A    between atoms: _283  and  _285
REMARK  103  A    between atoms: _285  and  _286
REMARK  104  A    between atoms: _285  and  _288
REMARK  105  A    between atoms: _288  and  _289
REMARK  106  A    between atoms: _292  and  _294
REMARK  107  A    between atoms: _294  and  _295
REMARK  108  A    between atoms: _294  and  _297
REMARK  109  A    between atoms: _297  and  _298
REMARK  110  A    between atoms: _302  and  _303
REMARK  111  A    between atoms: _309  and  _310
REMARK  112  A    between atoms: _315  and  _317
REMARK  113  A    between atoms: _317  and  _318
REMARK  114  A    between atoms: _317  and  _320
REMARK  115  A    between atoms: _320  and  _321
REMARK  116  A    between atoms: _324  and  _326
REMARK  117  A    between atoms: _326  and  _327
REMARK  118  A    between atoms: _326  and  _329
REMARK  119  A    between atoms: _329  and  _330
REMARK  120  A    between atoms: _333  and  _335
REMARK  121  A    between atoms: _335  and  _336
REMARK  122  A    between atoms: _335  and  _338
REMARK  123  A    between atoms: _340  and  _342
REMARK  124  A    between atoms: _342  and  _343
REMARK  125  A    between atoms: _342  and  _345
REMARK  126  A    between atoms: _348  and  _350
REMARK  127  A    between atoms: _350  and  _351
REMARK  128  A    between atoms: _350  and  _353
REMARK  129  A    between atoms: _353  and  _354
REMARK  130  A    between atoms: _364  and  _366
REMARK  131  A    between atoms: _366  and  _367
REMARK  132  A    between atoms: _366  and  _369
REMARK  133  A    between atoms: _369  and  _370
REMARK  134  A    between atoms: _375  and  _377
REMARK  135  A    between atoms: _377  and  _378
REMARK  136  A    between atoms: _377  and  _380
REMARK  137  A    between atoms: _380  and  _381
REMARK  138  A    between atoms: _381  and  _382
REMARK  139  A    between atoms: _382  and  _383
REMARK                            x       y       z     vdW  Elec       q    Type
REMARK                         _______ _______ _______ _____ _____    ______ ____
ROOT
ATOM      1  O   HOH     1      -4.191   3.558  10.054  0.00  0.00    +0.000 OA
ENDROOT
TORSDOF 0
REMARK  Name = ../refined-set-2016/3daz/3daz_pocket.pdb
REMARK  139 active torsions:
REMARK  status: ('A' for Active; 'I' for Inactive)
REMARK    1  A    between atoms: _1  and  _3
REMARK    2  A    between atoms: _3  and  _4
REMARK    3  A    between atoms: _3  and  _6
REMARK    4  A    between atoms: _6  and  _7
REMARK    5  A    between atoms: _17  and  _19
REMARK    6  A    between atoms: _19  and  _20
REMARK    7  A    between atoms: _19  and  _22
REMARK    8  A    between atoms: _22  and  _23
REMARK    9  A    between atoms: _28  and  _29
REMARK   10  A    between atoms: _31  and  _33
REMARK   11  A    between atoms: _33  and  _34
REMARK   12  A    between atoms: _33  and  _36
REMARK   13  A    between atoms: _36  and  _37
REMARK   14  A    between atoms: _40  and  _41
REMARK   15  A    between atoms: _46  and  _48
REMARK   16  A    between atoms: _48  and  _49
REMARK   17  A    between atoms: _48  and  _51
REMARK   18  A    between atoms: _51  and  _52
REMARK   19  A    between atoms: _57  and  _59
REMARK   20  A    between atoms: _59  and  _60
REMARK   21  A    between atoms: _59  and  _62
REMARK   22  A    between atoms: _62  and  _63
REMARK   23  A    between atoms: _68  and  _70
REMARK   24  A    between atoms: _70  and  _71
REMARK   25  A    between atoms: _70  and  _73
REMARK   26  A    between atoms: _73  and  _74
REMARK   27  A    between atoms: _77  and  _79
REMARK   28  A    between atoms: _79  and  _80
REMARK   29  A    between atoms: _79  and  _82
REMARK   30  A    between atoms: _82  and  _83
REMARK   31  A    between atoms: _83  and  _84
REMARK   32  A    between atoms: _89  and  _91
REMARK   33  A    between atoms: _91  and  _92
REMARK   34  A    between atoms: _91  and  _94
REMARK   35  A    between atoms: _94  and  _95
REMARK   36  A    between atoms: _101  and  _103
REMARK   37  A    between atoms: _114  and  _117
REMARK   38  A    between atoms: _117  and  _118
REMARK   39  A    between atoms: _126  and  _127
REMARK   40  A    between atoms: _135  and  _137
REMARK   41  A    between atoms: _137  and  _138
REMARK   42  A    between atoms: _137  and  _140
REMARK   43  A    between atoms: _140  and  _141
REMARK   44  A    between atoms: _141  and  _142
REMARK   45  A    between atoms: _145  and  _147
REMARK   46  A    between atoms: _147  and  _148
REMARK   47  A    between atoms: _147  and  _150
REMARK   48  A    between atoms: _150  and  _151
REMARK   49  A    between atoms: _156  and  _158
REMARK   50  A    between atoms: _158  and  _159
REMARK   51  A    between atoms: _158  and  _161
REMARK   52  A    between atoms: _161  and  _162
REMARK   53  A    between atoms: _162  and  _163
REMARK   54  A    between atoms: _166  and  _168
REMARK   55  A    between atoms: _168  and  _169
REMARK   56  A    between atoms: _168  and  _171
REMARK   57  A    between atoms: _171  and  _172
REMARK   58  A    between atoms: _175  and  _177
REMARK   59  A    between atoms: _177  and  _178
REMARK   60  A    between atoms: _177  and  _180
REMARK   61  A    between atoms: _180  and  _181
REMARK   62  A    between atoms: _182  and  ZN_392
REMARK   63  A    between atoms: _186  and  _188
REMARK   64  A    between atoms: _188  and  _189
REMARK   65  A    between atoms: _188  and  _191
REMARK   66  A    between atoms: _191  and  _192
REMARK   67  A    between atoms: _195  and  _197
REMARK   68  A    between atoms: _197  and  _198
REMARK   69  A    between atoms: _197  and  _200
REMARK   70  A    between atoms: _203  and  _205
REMARK   71  A    between atoms: _205  and  _206
REMARK   72  A    between atoms: _205  and  _208
REMARK   73  A    between atoms: _208  and  _209
REMARK   74  A    between atoms: _214  and  _216
REMARK   75  A    between atoms: _216  and  _217
REMARK   76  A    between atoms: _216  and  _219
REMARK   77  A    between atoms: _219  and  _220
REMARK   78  A    between atoms: _226  and  _228
REMARK   79  A    between atoms: _228  and  _229
REMARK   80  A    between atoms: _228  and  _231
REMARK   81  A    between atoms: _234  and  _236
REMARK   82  A    between atoms: _236  and  _237
REMARK   83  A    between atoms: _236  and  _239
REMARK   84  A    between atoms: _239  and  _240
REMARK   85  A    between atoms: _243  and  _245
REMARK   86  A    between atoms: _245  and  _246
REMARK   87  A    between atoms: _249  and  _251
REMARK   88  A    between atoms: _251  and  _252
REMARK   89  A    between atoms: _251  and  _254
REMARK   90  A    between atoms: _257  and  _259
REMARK   91  A    between atoms: _259  and  _260
REMARK   92  A    between atoms: _259  and  _262
REMARK   93  A    between atoms: _262  and  _263
REMARK   94  A    between atoms: _266  and  _268
REMARK   95  A    between atoms: _268  and  _269
REMARK   96  A    between atoms: _268  and  _271
REMARK   97  A    between atoms: _271  and  _272
REMARK   98  A    between atoms: _274  and  _276
REMARK   99  A    between atoms: _276  and  _277
REMARK  100  A    between atoms: _276  and  _279
REMARK  101  A    between atoms: _279  and  _280
REMARK  102  A    between atoms: _283  and  _285
REMARK  103  A    between atoms: _285  and  _286
REMARK  104  A    between atoms: _285  and  _288
REMARK  105  A    between atoms: _288  and  _289
REMARK  106  A    between atoms: _292  and  _294
REMARK  107  A    between atoms: _294  and  _295
REMARK  108  A    between atoms: _294  and  _297
REMARK  109  A    between atoms: _297  and  _298
REMARK  110  A    between atoms: _302  and  _303
REMARK  111  A    between atoms: _309  and  _310
REMARK  112  A    between atoms: _315  and  _317
REMARK  113  A    between atoms: _317  and  _318
REMARK  114  A    between atoms: _317  and  _320
REMARK  115  A    between atoms: _320  and  _321
REMARK  116  A    between atoms: _324  and  _326
REMARK  117  A    between atoms: _326  and  _327
REMARK  118  A    between atoms: _326  and  _329
REMARK  119  A    between atoms: _329  and  _330
REMARK  120  A    between atoms: _333  and  _335
REMARK  121  A    between atoms: _335  and  _336
REMARK  122  A    between atoms: _335  and  _338
REMARK  123  A    between atoms: _340  and  _342
REMARK  124  A    between atoms: _342  and  _343
REMARK  125  A    between atoms: _342  and  _345
REMARK  126  A    between atoms: _348  and  _350
REMARK  127  A    between atoms: _350  and  _351
REMARK  128  A    between atoms: _350  and  _353
REMARK  129  A    between atoms: _353  and  _354
REMARK  130  A    between atoms: _364  and  _366
REMARK  131  A    between atoms: _366  and  _367
REMARK  132  A    between atoms: _366  and  _369
REMARK  133  A    between atoms: _369  and  _370
REMARK  134  A    between atoms: _375  and  _377
REMARK  135  A    between atoms: _377  and  _378
REMARK  136  A    between atoms: _377  and  _380
REMARK  137  A    between atoms: _380  and  _381
REMARK  138  A    between atoms: _381  and  _382
REMARK  139  A    between atoms: _382  and  _383
REMARK                            x       y       z     vdW  Elec       q    Type
REMARK                         _______ _______ _______ _____ _____    ______ ____
ROOT
ATOM      1  O   HOH     1      -4.248  -1.298  11.961  0.00  0.00    +0.000 OA
ENDROOT
TORSDOF 0
REMARK  Name = ../refined-set-2016/3daz/3daz_pocket.pdb
REMARK  139 active torsions:
REMARK  status: ('A' for Active; 'I' for Inactive)
REMARK    1  A    between atoms: _1  and  _3
REMARK    2  A    between atoms: _3  and  _4
REMARK    3  A    between atoms: _3  and  _6
REMARK    4  A    between atoms: _6  and  _7
REMARK    5  A    between atoms: _17  and  _19
REMARK    6  A    between atoms: _19  and  _20
REMARK    7  A    between atoms: _19  and  _22
REMARK    8  A    between atoms: _22  and  _23
REMARK    9  A    between atoms: _28  and  _29
REMARK   10  A    between atoms: _31  and  _33
REMARK   11  A    between atoms: _33  and  _34
REMARK   12  A    between atoms: _33  and  _36
REMARK   13  A    between atoms: _36  and  _37
REMARK   14  A    between atoms: _40  and  _41
REMARK   15  A    between atoms: _46  and  _48
REMARK   16  A    between atoms: _48  and  _49
REMARK   17  A    between atoms: _48  and  _51
REMARK   18  A    between atoms: _51  and  _52
REMARK   19  A    between atoms: _57  and  _59
REMARK   20  A    between atoms: _59  and  _60
REMARK   21  A    between atoms: _59  and  _62
REMARK   22  A    between atoms: _62  and  _63
REMARK   23  A    between atoms: _68  and  _70
REMARK   24  A    between atoms: _70  and  _71
REMARK   25  A    between atoms: _70  and  _73
REMARK   26  A    between atoms: _73  and  _74
REMARK   27  A    between atoms: _77  and  _79
REMARK   28  A    between atoms: _79  and  _80
REMARK   29  A    between atoms: _79  and  _82
REMARK   30  A    between atoms: _82  and  _83
REMARK   31  A    between atoms: _83  and  _84
REMARK   32  A    between atoms: _89  and  _91
REMARK   33  A    between atoms: _91  and  _92
REMARK   34  A    between atoms: _91  and  _94
REMARK   35  A    between atoms: _94  and  _95
REMARK   36  A    between atoms: _101  and  _103
REMARK   37  A    between atoms: _114  and  _117
REMARK   38  A    between atoms: _117  and  _118
REMARK   39  A    between atoms: _126  and  _127
REMARK   40  A    between atoms: _135  and  _137
REMARK   41  A    between atoms: _137  and  _138
REMARK   42  A    between atoms: _137  and  _140
REMARK   43  A    between atoms: _140  and  _141
REMARK   44  A    between atoms: _141  and  _142
REMARK   45  A    between atoms: _145  and  _147
REMARK   46  A    between atoms: _147  and  _148
REMARK   47  A    between atoms: _147  and  _150
REMARK   48  A    between atoms: _150  and  _151
REMARK   49  A    between atoms: _156  and  _158
REMARK   50  A    between atoms: _158  and  _159
REMARK   51  A    between atoms: _158  and  _161
REMARK   52  A    between atoms: _161  and  _162
REMARK   53  A    between atoms: _162  and  _163
REMARK   54  A    between atoms: _166  and  _168
REMARK   55  A    between atoms: _168  and  _169
REMARK   56  A    between atoms: _168  and  _171
REMARK   57  A    between atoms: _171  and  _172
REMARK   58  A    between atoms: _175  and  _177
REMARK   59  A    between atoms: _177  and  _178
REMARK   60  A    between atoms: _177  and  _180
REMARK   61  A    between atoms: _180  and  _181
REMARK   62  A    between atoms: _182  and  ZN_392
REMARK   63  A    between atoms: _186  and  _188
REMARK   64  A    between atoms: _188  and  _189
REMARK   65  A    between atoms: _188  and  _191
REMARK   66  A    between atoms: _191  and  _192
REMARK   67  A    between atoms: _195  and  _197
REMARK   68  A    between atoms: _197  and  _198
REMARK   69  A    between atoms: _197  and  _200
REMARK   70  A    between atoms: _203  and  _205
REMARK   71  A    between atoms: _205  and  _206
REMARK   72  A    between atoms: _205  and  _208
REMARK   73  A    between atoms: _208  and  _209
REMARK   74  A    between atoms: _214  and  _216
REMARK   75  A    between atoms: _216  and  _217
REMARK   76  A    between atoms: _216  and  _219
REMARK   77  A    between atoms: _219  and  _220
REMARK   78  A    between atoms: _226  and  _228
REMARK   79  A    between atoms: _228  and  _229
REMARK   80  A    between atoms: _228  and  _231
REMARK   81  A    between atoms: _234  and  _236
REMARK   82  A    between atoms: _236  and  _237
REMARK   83  A    between atoms: _236  and  _239
REMARK   84  A    between atoms: _239  and  _240
REMARK   85  A    between atoms: _243  and  _245
REMARK   86  A    between atoms: _245  and  _246
REMARK   87  A    between atoms: _249  and  _251
REMARK   88  A    between atoms: _251  and  _252
REMARK   89  A    between atoms: _251  and  _254
REMARK   90  A    between atoms: _257  and  _259
REMARK   91  A    between atoms: _259  and  _260
REMARK   92  A    between atoms: _259  and  _262
REMARK   93  A    between atoms: _262  and  _263
REMARK   94  A    between atoms: _266  and  _268
REMARK   95  A    between atoms: _268  and  _269
REMARK   96  A    between atoms: _268  and  _271
REMARK   97  A    between atoms: _271  and  _272
REMARK   98  A    between atoms: _274  and  _276
REMARK   99  A    between atoms: _276  and  _277
REMARK  100  A    between atoms: _276  and  _279
REMARK  101  A    between atoms: _279  and  _280
REMARK  102  A    between atoms: _283  and  _285
REMARK  103  A    between atoms: _285  and  _286
REMARK  104  A    between atoms: _285  and  _288
REMARK  105  A    between atoms: _288  and  _289
REMARK  106  A    between atoms: _292  and  _294
REMARK  107  A    between atoms: _294  and  _295
REMARK  108  A    between atoms: _294  and  _297
REMARK  109  A    between atoms: _297  and  _298
REMARK  110  A    between atoms: _302  and  _303
REMARK  111  A    between atoms: _309  and  _310
REMARK  112  A    between atoms: _315  and  _317
REMARK  113  A    between atoms: _317  and  _318
REMARK  114  A    between atoms: _317  and  _320
REMARK  115  A    between atoms: _320  and  _321
REMARK  116  A    between atoms: _324  and  _326
REMARK  117  A    between atoms: _326  and  _327
REMARK  118  A    between atoms: _326  and  _329
REMARK  119  A    between atoms: _329  and  _330
REMARK  120  A    between atoms: _333  and  _335
REMARK  121  A    between atoms: _335  and  _336
REMARK  122  A    between atoms: _335  and  _338
REMARK  123  A    between atoms: _340  and  _342
REMARK  124  A    between atoms: _342  and  _343
REMARK  125  A    between atoms: _342  and  _345
REMARK  126  A    between atoms: _348  and  _350
REMARK  127  A    between atoms: _350  and  _351
REMARK  128  A    between atoms: _350  and  _353
REMARK  129  A    between atoms: _353  and  _354
REMARK  130  A    between atoms: _364  and  _366
REMARK  131  A    between atoms: _366  and  _367
REMARK  132  A    between atoms: _366  and  _369
REMARK  133  A    between atoms: _369  and  _370
REMARK  134  A    between atoms: _375  and  _377
REMARK  135  A    between atoms: _377  and  _378
REMARK  136  A    between atoms: _377  and  _380
REMARK  137  A    between atoms: _380  and  _381
REMARK  138  A    between atoms: _381  and  _382
REMARK  139  A    between atoms: _382  and  _383
REMARK                            x       y       z     vdW  Elec       q    Type
REMARK                         _______ _______ _______ _____ _____    ______ ____
ROOT
ATOM      1  O   HOH     1      -2.086   6.836  13.906  0.00  0.00    +0.000 OA
ENDROOT
TORSDOF 0
REMARK  Name = ../refined-set-2016/3daz/3daz_pocket.pdb
REMARK  139 active torsions:
REMARK  status: ('A' for Active; 'I' for Inactive)
REMARK    1  A    between atoms: _1  and  _3
REMARK    2  A    between atoms: _3  and  _4
REMARK    3  A    between atoms: _3  and  _6
REMARK    4  A    between atoms: _6  and  _7
REMARK    5  A    between atoms: _17  and  _19
REMARK    6  A    between atoms: _19  and  _20
REMARK    7  A    between atoms: _19  and  _22
REMARK    8  A    between atoms: _22  and  _23
REMARK    9  A    between atoms: _28  and  _29
REMARK   10  A    between atoms: _31  and  _33
REMARK   11  A    between atoms: _33  and  _34
REMARK   12  A    between atoms: _33  and  _36
REMARK   13  A    between atoms: _36  and  _37
REMARK   14  A    between atoms: _40  and  _41
REMARK   15  A    between atoms: _46  and  _48
REMARK   16  A    between atoms: _48  and  _49
REMARK   17  A    between atoms: _48  and  _51
REMARK   18  A    between atoms: _51  and  _52
REMARK   19  A    between atoms: _57  and  _59
REMARK   20  A    between atoms: _59  and  _60
REMARK   21  A    between atoms: _59  and  _62
REMARK   22  A    between atoms: _62  and  _63
REMARK   23  A    between atoms: _68  and  _70
REMARK   24  A    between atoms: _70  and  _71
REMARK   25  A    between atoms: _70  and  _73
REMARK   26  A    between atoms: _73  and  _74
REMARK   27  A    between atoms: _77  and  _79
REMARK   28  A    between atoms: _79  and  _80
REMARK   29  A    between atoms: _79  and  _82
REMARK   30  A    between atoms: _82  and  _83
REMARK   31  A    between atoms: _83  and  _84
REMARK   32  A    between atoms: _89  and  _91
REMARK   33  A    between atoms: _91  and  _92
REMARK   34  A    between atoms: _91  and  _94
REMARK   35  A    between atoms: _94  and  _95
REMARK   36  A    between atoms: _101  and  _103
REMARK   37  A    between atoms: _114  and  _117
REMARK   38  A    between atoms: _117  and  _118
REMARK   39  A    between atoms: _126  and  _127
REMARK   40  A    between atoms: _135  and  _137
REMARK   41  A    between atoms: _137  and  _138
REMARK   42  A    between atoms: _137  and  _140
REMARK   43  A    between atoms: _140  and  _141
REMARK   44  A    between atoms: _141  and  _142
REMARK   45  A    between atoms: _145  and  _147
REMARK   46  A    between atoms: _147  and  _148
REMARK   47  A    between atoms: _147  and  _150
REMARK   48  A    between atoms: _150  and  _151
REMARK   49  A    between atoms: _156  and  _158
REMARK   50  A    between atoms: _158  and  _159
REMARK   51  A    between atoms: _158  and  _161
REMARK   52  A    between atoms: _161  and  _162
REMARK   53  A    between atoms: _162  and  _163
REMARK   54  A    between atoms: _166  and  _168
REMARK   55  A    between atoms: _168  and  _169
REMARK   56  A    between atoms: _168  and  _171
REMARK   57  A    between atoms: _171  and  _172
REMARK   58  A    between atoms: _175  and  _177
REMARK   59  A    between atoms: _177  and  _178
REMARK   60  A    between atoms: _177  and  _180
REMARK   61  A    between atoms: _180  and  _181
REMARK   62  A    between atoms: _182  and  ZN_392
REMARK   63  A    between atoms: _186  and  _188
REMARK   64  A    between atoms: _188  and  _189
REMARK   65  A    between atoms: _188  and  _191
REMARK   66  A    between atoms: _191  and  _192
REMARK   67  A    between atoms: _195  and  _197
REMARK   68  A    between atoms: _197  and  _198
REMARK   69  A    between atoms: _197  and  _200
REMARK   70  A    between atoms: _203  and  _205
REMARK   71  A    between atoms: _205  and  _206
REMARK   72  A    between atoms: _205  and  _208
REMARK   73  A    between atoms: _208  and  _209
REMARK   74  A    between atoms: _214  and  _216
REMARK   75  A    between atoms: _216  and  _217
REMARK   76  A    between atoms: _216  and  _219
REMARK   77  A    between atoms: _219  and  _220
REMARK   78  A    between atoms: _226  and  _228
REMARK   79  A    between atoms: _228  and  _229
REMARK   80  A    between atoms: _228  and  _231
REMARK   81  A    between atoms: _234  and  _236
REMARK   82  A    between atoms: _236  and  _237
REMARK   83  A    between atoms: _236  and  _239
REMARK   84  A    between atoms: _239  and  _240
REMARK   85  A    between atoms: _243  and  _245
REMARK   86  A    between atoms: _245  and  _246
REMARK   87  A    between atoms: _249  and  _251
REMARK   88  A    between atoms: _251  and  _252
REMARK   89  A    between atoms: _251  and  _254
REMARK   90  A    between atoms: _257  and  _259
REMARK   91  A    between atoms: _259  and  _260
REMARK   92  A    between atoms: _259  and  _262
REMARK   93  A    between atoms: _262  and  _263
REMARK   94  A    between atoms: _266  and  _268
REMARK   95  A    between atoms: _268  and  _269
REMARK   96  A    between atoms: _268  and  _271
REMARK   97  A    between atoms: _271  and  _272
REMARK   98  A    between atoms: _274  and  _276
REMARK   99  A    between atoms: _276  and  _277
REMARK  100  A    between atoms: _276  and  _279
REMARK  101  A    between atoms: _279  and  _280
REMARK  102  A    between atoms: _283  and  _285
REMARK  103  A    between atoms: _285  and  _286
REMARK  104  A    between atoms: _285  and  _288
REMARK  105  A    between atoms: _288  and  _289
REMARK  106  A    between atoms: _292  and  _294
REMARK  107  A    between atoms: _294  and  _295
REMARK  108  A    between atoms: _294  and  _297
REMARK  109  A    between atoms: _297  and  _298
REMARK  110  A    between atoms: _302  and  _303
REMARK  111  A    between atoms: _309  and  _310
REMARK  112  A    between atoms: _315  and  _317
REMARK  113  A    between atoms: _317  and  _318
REMARK  114  A    between atoms: _317  and  _320
REMARK  115  A    between atoms: _320  and  _321
REMARK  116  A    between atoms: _324  and  _326
REMARK  117  A    between atoms: _326  and  _327
REMARK  118  A    between atoms: _326  and  _329
REMARK  119  A    between atoms: _329  and  _330
REMARK  120  A    between atoms: _333  and  _335
REMARK  121  A    between atoms: _335  and  _336
REMARK  122  A    between atoms: _335  and  _338
REMARK  123  A    between atoms: _340  and  _342
REMARK  124  A    between atoms: _342  and  _343
REMARK  125  A    between atoms: _342  and  _345
REMARK  126  A    between atoms: _348  and  _350
REMARK  127  A    between atoms: _350  and  _351
REMARK  128  A    between atoms: _350  and  _353
REMARK  129  A    between atoms: _353  and  _354
REMARK  130  A    between atoms: _364  and  _366
REMARK  131  A    between atoms: _366  and  _367
REMARK  132  A    between atoms: _366  and  _369
REMARK  133  A    between atoms: _369  and  _370
REMARK  134  A    between atoms: _375  and  _377
REMARK  135  A    between atoms: _377  and  _378
REMARK  136  A    between atoms: _377  and  _380
REMARK  137  A    between atoms: _380  and  _381
REMARK  138  A    between atoms: _381  and  _382
REMARK  139  A    between atoms: _382  and  _383
REMARK                            x       y       z     vdW  Elec       q    Type
REMARK                         _______ _______ _______ _____ _____    ______ ____
ROOT
ATOM      1  O   HOH     1      -6.162   9.636   9.799  0.00  0.00    +0.000 OA
ENDROOT
TORSDOF 0
