REMARK  Name = ../refined-set-2016/1w5y/1w5y_pocket.pdb
REMARK  252 active torsions:
REMARK  status: ('A' for Active; 'I' for Inactive)
REMARK    1  A    between atoms: _1  and  _3
REMARK    2  A    between atoms: _3  and  _4
REMARK    3  A    between atoms: _3  and  _6
REMARK    4  A    between atoms: _6  and  _7
REMARK    5  A    between atoms: _7  and  _8
REMARK    6  A    between atoms: _8  and  _9
REMARK    7  A    between atoms: _19  and  _20
REMARK    8  A    between atoms: _25  and  _27
REMARK    9  A    between atoms: _27  and  _28
REMARK   10  A    between atoms: _27  and  _30
REMARK   11  A    between atoms: _30  and  _31
REMARK   12  A    between atoms: _34  and  _36
REMARK   13  A    between atoms: _36  and  _37
REMARK   14  A    between atoms: _36  and  _39
REMARK   15  A    between atoms: _39  and  _40
REMARK   16  A    between atoms: _43  and  _45
REMARK   17  A    between atoms: _45  and  _46
REMARK   18  A    between atoms: _45  and  _48
REMARK   19  A    between atoms: _48  and  _49
REMARK   20  A    between atoms: _52  and  _54
REMARK   21  A    between atoms: _54  and  _55
REMARK   22  A    between atoms: _54  and  _57
REMARK   23  A    between atoms: _57  and  _58
REMARK   24  A    between atoms: _61  and  _63
REMARK   25  A    between atoms: _63  and  _64
REMARK   26  A    between atoms: _63  and  _66
REMARK   27  A    between atoms: _66  and  _67
REMARK   28  A    between atoms: _70  and  _72
REMARK   29  A    between atoms: _72  and  _73
REMARK   30  A    between atoms: _75  and  _77
REMARK   31  A    between atoms: _77  and  _78
REMARK   32  A    between atoms: _81  and  _83
REMARK   33  A    between atoms: _83  and  _84
REMARK   34  A    between atoms: _83  and  _86
REMARK   35  A    between atoms: _86  and  _87
REMARK   36  A    between atoms: _90  and  _92
REMARK   37  A    between atoms: _92  and  _93
REMARK   38  A    between atoms: _92  and  _95
REMARK   39  A    between atoms: _95  and  _96
REMARK   40  A    between atoms: _99  and  _101
REMARK   41  A    between atoms: _101  and  _102
REMARK   42  A    between atoms: _101  and  _104
REMARK   43  A    between atoms: _104  and  _105
REMARK   44  A    between atoms: _108  and  _110
REMARK   45  A    between atoms: _110  and  _111
REMARK   46  A    between atoms: _110  and  _113
REMARK   47  A    between atoms: _116  and  _118
REMARK   48  A    between atoms: _118  and  _119
REMARK   49  A    between atoms: _118  and  _121
REMARK   50  A    between atoms: _121  and  _122
REMARK   51  A    between atoms: _125  and  _127
REMARK   52  A    between atoms: _127  and  _128
REMARK   53  A    between atoms: _127  and  _130
REMARK   54  A    between atoms: _130  and  _131
REMARK   55  A    between atoms: _131  and  _132
REMARK   56  A    between atoms: _132  and  _133
REMARK   57  A    between atoms: _133  and  _134
REMARK   58  A    between atoms: _138  and  _140
REMARK   59  A    between atoms: _140  and  _141
REMARK   60  A    between atoms: _140  and  _143
REMARK   61  A    between atoms: _143  and  _144
REMARK   62  A    between atoms: _144  and  _145
REMARK   63  A    between atoms: _147  and  _149
REMARK   64  A    between atoms: _149  and  _150
REMARK   65  A    between atoms: _149  and  _152
REMARK   66  A    between atoms: _152  and  _153
REMARK   67  A    between atoms: _156  and  _158
REMARK   68  A    between atoms: _158  and  _159
REMARK   69  A    between atoms: _161  and  _163
REMARK   70  A    between atoms: _163  and  _164
REMARK   71  A    between atoms: _166  and  _168
REMARK   72  A    between atoms: _168  and  _169
REMARK   73  A    between atoms: _168  and  _171
REMARK   74  A    between atoms: _171  and  _172
REMARK   75  A    between atoms: _175  and  _177
REMARK   76  A    between atoms: _177  and  _178
REMARK   77  A    between atoms: _180  and  _182
REMARK   78  A    between atoms: _182  and  _183
REMARK   79  A    between atoms: _185  and  _187
REMARK   80  A    between atoms: _187  and  _188
REMARK   81  A    between atoms: _187  and  _190
REMARK   82  A    between atoms: _190  and  _191
REMARK   83  A    between atoms: _197  and  _199
REMARK   84  A    between atoms: _199  and  _200
REMARK   85  A    between atoms: _199  and  _202
REMARK   86  A    between atoms: _202  and  _203
REMARK   87  A    between atoms: _206  and  _208
REMARK   88  A    between atoms: _208  and  _209
REMARK   89  A    between atoms: _208  and  _211
REMARK   90  A    between atoms: _214  and  _216
REMARK   91  A    between atoms: _216  and  _217
REMARK   92  A    between atoms: _216  and  _219
REMARK   93  A    between atoms: _219  and  _220
REMARK   94  A    between atoms: _224  and  _225
REMARK   95  A    between atoms: _230  and  _232
REMARK   96  A    between atoms: _232  and  _233
REMARK   97  A    between atoms: _232  and  _235
REMARK   98  A    between atoms: _235  and  _236
REMARK   99  A    between atoms: _240  and  _241
REMARK  100  A    between atoms: _246  and  _248
REMARK  101  A    between atoms: _248  and  _249
REMARK  102  A    between atoms: _248  and  _251
REMARK  103  A    between atoms: _254  and  _256
REMARK  104  A    between atoms: _256  and  _257
REMARK  105  A    between atoms: _256  and  _259
REMARK  106  A    between atoms: _259  and  _260
REMARK  107  A    between atoms: _265  and  _267
REMARK  108  A    between atoms: _267  and  _268
REMARK  109  A    between atoms: _267  and  _270
REMARK  110  A    between atoms: _270  and  _271
REMARK  111  A    between atoms: _274  and  _276
REMARK  112  A    between atoms: _276  and  _277
REMARK  113  A    between atoms: _276  and  _279
REMARK  114  A    between atoms: _279  and  _280
REMARK  115  A    between atoms: _283  and  _285
REMARK  116  A    between atoms: _285  and  _286
REMARK  117  A    between atoms: _288  and  _290
REMARK  118  A    between atoms: _290  and  _291
REMARK  119  A    between atoms: _290  and  _293
REMARK  120  A    between atoms: _293  and  _294
REMARK  121  A    between atoms: _294  and  _295
REMARK  122  A    between atoms: _295  and  _296
REMARK  123  A    between atoms: _305  and  _307
REMARK  124  A    between atoms: _307  and  _308
REMARK  125  A    between atoms: _307  and  _310
REMARK  126  A    between atoms: _310  and  _311
REMARK  127  A    between atoms: _316  and  _318
REMARK  128  A    between atoms: _318  and  _319
REMARK  129  A    between atoms: _318  and  _321
REMARK  130  A    between atoms: _321  and  _322
REMARK  131  A    between atoms: _322  and  _323
REMARK  132  A    between atoms: _323  and  _324
REMARK  133  A    between atoms: _334  and  _335
REMARK  134  A    between atoms: _340  and  _342
REMARK  135  A    between atoms: _342  and  _343
REMARK  136  A    between atoms: _342  and  _345
REMARK  137  A    between atoms: _345  and  _346
REMARK  138  A    between atoms: _349  and  _351
REMARK  139  A    between atoms: _351  and  _352
REMARK  140  A    between atoms: _351  and  _354
REMARK  141  A    between atoms: _354  and  _355
REMARK  142  A    between atoms: _358  and  _360
REMARK  143  A    between atoms: _360  and  _361
REMARK  144  A    between atoms: _360  and  _363
REMARK  145  A    between atoms: _363  and  _364
REMARK  146  A    between atoms: _367  and  _369
REMARK  147  A    between atoms: _369  and  _370
REMARK  148  A    between atoms: _369  and  _372
REMARK  149  A    between atoms: _372  and  _373
REMARK  150  A    between atoms: _376  and  _378
REMARK  151  A    between atoms: _378  and  _379
REMARK  152  A    between atoms: _378  and  _381
REMARK  153  A    between atoms: _381  and  _382
REMARK  154  A    between atoms: _385  and  _387
REMARK  155  A    between atoms: _387  and  _388
REMARK  156  A    between atoms: _390  and  _392
REMARK  157  A    between atoms: _392  and  _393
REMARK  158  A    between atoms: _396  and  _398
REMARK  159  A    between atoms: _398  and  _399
REMARK  160  A    between atoms: _398  and  _401
REMARK  161  A    between atoms: _401  and  _402
REMARK  162  A    between atoms: _405  and  _407
REMARK  163  A    between atoms: _407  and  _408
REMARK  164  A    between atoms: _407  and  _410
REMARK  165  A    between atoms: _410  and  _411
REMARK  166  A    between atoms: _414  and  _416
REMARK  167  A    between atoms: _416  and  _417
REMARK  168  A    between atoms: _416  and  _419
REMARK  169  A    between atoms: _419  and  _420
REMARK  170  A    between atoms: _423  and  _425
REMARK  171  A    between atoms: _425  and  _426
REMARK  172  A    between atoms: _425  and  _428
REMARK  173  A    between atoms: _431  and  _433
REMARK  174  A    between atoms: _433  and  _434
REMARK  175  A    between atoms: _433  and  _436
REMARK  176  A    between atoms: _436  and  _437
REMARK  177  A    between atoms: _440  and  _442
REMARK  178  A    between atoms: _442  and  _443
REMARK  179  A    between atoms: _442  and  _445
REMARK  180  A    between atoms: _445  and  _446
REMARK  181  A    between atoms: _446  and  _447
REMARK  182  A    between atoms: _447  and  _448
REMARK  183  A    between atoms: _448  and  _449
REMARK  184  A    between atoms: _453  and  _455
REMARK  185  A    between atoms: _455  and  _456
REMARK  186  A    between atoms: _455  and  _458
REMARK  187  A    between atoms: _458  and  _459
REMARK  188  A    between atoms: _459  and  _460
REMARK  189  A    between atoms: _462  and  _464
REMARK  190  A    between atoms: _464  and  _465
REMARK  191  A    between atoms: _464  and  _467
REMARK  192  A    between atoms: _467  and  _468
REMARK  193  A    between atoms: _471  and  _473
REMARK  194  A    between atoms: _473  and  _474
REMARK  195  A    between atoms: _476  and  _478
REMARK  196  A    between atoms: _478  and  _479
REMARK  197  A    between atoms: _481  and  _483
REMARK  198  A    between atoms: _483  and  _484
REMARK  199  A    between atoms: _483  and  _486
REMARK  200  A    between atoms: _486  and  _487
REMARK  201  A    between atoms: _490  and  _492
REMARK  202  A    between atoms: _492  and  _493
REMARK  203  A    between atoms: _495  and  _497
REMARK  204  A    between atoms: _497  and  _498
REMARK  205  A    between atoms: _500  and  _502
REMARK  206  A    between atoms: _502  and  _503
REMARK  207  A    between atoms: _502  and  _505
REMARK  208  A    between atoms: _505  and  _506
REMARK  209  A    between atoms: _512  and  _514
REMARK  210  A    between atoms: _514  and  _515
REMARK  211  A    between atoms: _514  and  _517
REMARK  212  A    between atoms: _517  and  _518
REMARK  213  A    between atoms: _521  and  _523
REMARK  214  A    between atoms: _523  and  _524
REMARK  215  A    between atoms: _523  and  _526
REMARK  216  A    between atoms: _529  and  _531
REMARK  217  A    between atoms: _531  and  _532
REMARK  218  A    between atoms: _531  and  _534
REMARK  219  A    between atoms: _534  and  _535
REMARK  220  A    between atoms: _539  and  _540
REMARK  221  A    between atoms: _545  and  _547
REMARK  222  A    between atoms: _547  and  _548
REMARK  223  A    between atoms: _547  and  _550
REMARK  224  A    between atoms: _550  and  _551
REMARK  225  A    between atoms: _555  and  _556
REMARK  226  A    between atoms: _561  and  _563
REMARK  227  A    between atoms: _563  and  _564
REMARK  228  A    between atoms: _563  and  _566
REMARK  229  A    between atoms: _569  and  _571
REMARK  230  A    between atoms: _571  and  _572
REMARK  231  A    between atoms: _571  and  _574
REMARK  232  A    between atoms: _574  and  _575
REMARK  233  A    between atoms: _580  and  _582
REMARK  234  A    between atoms: _582  and  _583
REMARK  235  A    between atoms: _582  and  _585
REMARK  236  A    between atoms: _585  and  _586
REMARK  237  A    between atoms: _589  and  _591
REMARK  238  A    between atoms: _591  and  _592
REMARK  239  A    between atoms: _591  and  _594
REMARK  240  A    between atoms: _594  and  _595
REMARK  241  A    between atoms: _598  and  _600
REMARK  242  A    between atoms: _600  and  _601
REMARK  243  A    between atoms: _603  and  _605
REMARK  244  A    between atoms: _605  and  _606
REMARK  245  A    between atoms: _605  and  _608
REMARK  246  A    between atoms: _608  and  _609
REMARK  247  A    between atoms: _609  and  _610
REMARK  248  A    between atoms: _610  and  _611
REMARK  249  A    between atoms: _620  and  _622
REMARK  250  A    between atoms: _622  and  _623
REMARK  251  A    between atoms: _622  and  _625
REMARK  252  A    between atoms: _625  and  _626
REMARK                            x       y       z     vdW  Elec       q    Type
REMARK                         _______ _______ _______ _____ _____    ______ ____
ROOT
ATOM      1  C   ARG A   1      26.012  26.134   6.993  0.00  0.00    +0.241 C 
ATOM      2  O   ARG A   1      26.974  26.324   7.745  0.00  0.00    -0.273 OA
ATOM      3  N   PRO A   2      25.234  27.142   6.561  0.00  0.00    -0.272 N 
ATOM      4  CA  PRO A   2      25.482  28.527   6.967  0.00  0.00    +0.152 C 
ATOM      5  CB  PRO A   2      24.741  29.331   5.900  0.00  0.00    +0.031 C 
ATOM      6  CG  PRO A   2      23.538  28.482   5.639  0.00  0.00    +0.024 C 
ATOM      7  CD  PRO A   2      24.118  27.066   5.597  0.00  0.00    +0.094 C 
ENDROOT
BRANCH   4   8
ATOM      8  C   PRO A   2      25.006  28.838   8.383  0.00  0.00    +0.241 C 
ATOM      9  N   LEU A   3      25.800  28.418   9.364  0.00  0.00    -0.298 N 
ATOM     10  H   LEU A   3      26.676  27.914   9.117  0.00  0.00    +0.150 HD
ATOM     11  O   PRO A   2      23.955  29.449   8.582  0.00  0.00    -0.273 OA
BRANCH   9  12
ATOM     12  CA  LEU A   3      25.490  28.637  10.771  0.00  0.00    +0.137 C 
BRANCH  12  13
ATOM     13  C   LEU A   3      26.124  29.924  11.285  0.00  0.00    +0.227 C 
ATOM     14  O   LEU A   3      27.257  30.258  10.926  0.00  0.00    -0.286 OA
ENDBRANCH  12  13
BRANCH  12  15
ATOM     15  CB  LEU A   3      26.006  27.466  11.609  0.00  0.00    +0.028 C 
BRANCH  15  16
ATOM     16  CG  LEU A   3      25.425  26.077  11.354  0.00  0.00    +0.002 C 
ATOM     17  CD2 LEU A   3      26.218  25.055  12.150  0.00  0.00    +0.000 C 
ATOM     18  CD1 LEU A   3      23.957  26.041  11.756  0.00  0.00    +0.000 C 
ENDBRANCH  15  16
ENDBRANCH  12  15
ENDBRANCH   9  12
ENDBRANCH   4   8
BRANCH   1  19
ATOM     19  CA  ARG A   1      25.671  24.728   6.508  0.00  0.00    +0.145 C 
BRANCH  19  20
ATOM     20  N   ARG A   1      26.908  24.077   6.080  0.00  0.00    -0.238 NA
ATOM     21  H   ARG A   1      27.227  23.212   6.561  0.00  0.00    +0.142 HD
ENDBRANCH  19  20
BRANCH  19  22
ATOM     22  CB  ARG A   1      25.002  23.934   7.632  0.00  0.00    +0.030 C 
BRANCH  22  23
ATOM     23  CG  ARG A   1      24.393  22.614   7.177  0.00  0.00    +0.045 C 
BRANCH  23  24
ATOM     24  CD  ARG A   1      23.724  21.879   8.336  0.00  0.00    +0.174 C 
BRANCH  24  25
ATOM     25  NE  ARG A   1      22.991  20.699   7.883  0.00  0.00    -0.265 N 
ATOM     26  CZ  ARG A   1      22.289  19.905   8.686  0.00  0.00    +0.342 C 
ATOM     27  NH2 ARG A   1      22.222  20.163   9.987  0.00  0.00    -0.292 N 
ATOM     28 HH21 ARG A   1      21.672  19.540  10.613  0.00  0.00    +0.255 HD
ATOM     29 HH22 ARG A   1      22.719  20.988  10.380  0.00  0.00    +0.255 HD
ATOM     30  NH1 ARG A   1      21.636  18.864   8.189  0.00  0.00    -0.292 N 
ATOM     31 HH11 ARG A   1      21.088  18.245   8.820  0.00  0.00    +0.255 HD
ATOM     32 HH12 ARG A   1      21.672  18.667   7.169  0.00  0.00    +0.255 HD
ATOM     33  HE  ARG A   1      23.020  20.466   6.870  0.00  0.00    +0.259 HD
ENDBRANCH  24  25
ENDBRANCH  23  24
ENDBRANCH  22  23
ENDBRANCH  19  22
ENDBRANCH   1  19
TORSDOF 11
REMARK  Name = ../refined-set-2016/1w5y/1w5y_pocket.pdb
REMARK  252 active torsions:
REMARK  status: ('A' for Active; 'I' for Inactive)
REMARK    1  A    between atoms: _1  and  _3
REMARK    2  A    between atoms: _3  and  _4
REMARK    3  A    between atoms: _3  and  _6
REMARK    4  A    between atoms: _6  and  _7
REMARK    5  A    between atoms: _7  and  _8
REMARK    6  A    between atoms: _8  and  _9
REMARK    7  A    between atoms: _19  and  _20
REMARK    8  A    between atoms: _25  and  _27
REMARK    9  A    between atoms: _27  and  _28
REMARK   10  A    between atoms: _27  and  _30
REMARK   11  A    between atoms: _30  and  _31
REMARK   12  A    between atoms: _34  and  _36
REMARK   13  A    between atoms: _36  and  _37
REMARK   14  A    between atoms: _36  and  _39
REMARK   15  A    between atoms: _39  and  _40
REMARK   16  A    between atoms: _43  and  _45
REMARK   17  A    between atoms: _45  and  _46
REMARK   18  A    between atoms: _45  and  _48
REMARK   19  A    between atoms: _48  and  _49
REMARK   20  A    between atoms: _52  and  _54
REMARK   21  A    between atoms: _54  and  _55
REMARK   22  A    between atoms: _54  and  _57
REMARK   23  A    between atoms: _57  and  _58
REMARK   24  A    between atoms: _61  and  _63
REMARK   25  A    between atoms: _63  and  _64
REMARK   26  A    between atoms: _63  and  _66
REMARK   27  A    between atoms: _66  and  _67
REMARK   28  A    between atoms: _70  and  _72
REMARK   29  A    between atoms: _72  and  _73
REMARK   30  A    between atoms: _75  and  _77
REMARK   31  A    between atoms: _77  and  _78
REMARK   32  A    between atoms: _81  and  _83
REMARK   33  A    between atoms: _83  and  _84
REMARK   34  A    between atoms: _83  and  _86
REMARK   35  A    between atoms: _86  and  _87
REMARK   36  A    between atoms: _90  and  _92
REMARK   37  A    between atoms: _92  and  _93
REMARK   38  A    between atoms: _92  and  _95
REMARK   39  A    between atoms: _95  and  _96
REMARK   40  A    between atoms: _99  and  _101
REMARK   41  A    between atoms: _101  and  _102
REMARK   42  A    between atoms: _101  and  _104
REMARK   43  A    between atoms: _104  and  _105
REMARK   44  A    between atoms: _108  and  _110
REMARK   45  A    between atoms: _110  and  _111
REMARK   46  A    between atoms: _110  and  _113
REMARK   47  A    between atoms: _116  and  _118
REMARK   48  A    between atoms: _118  and  _119
REMARK   49  A    between atoms: _118  and  _121
REMARK   50  A    between atoms: _121  and  _122
REMARK   51  A    between atoms: _125  and  _127
REMARK   52  A    between atoms: _127  and  _128
REMARK   53  A    between atoms: _127  and  _130
REMARK   54  A    between atoms: _130  and  _131
REMARK   55  A    between atoms: _131  and  _132
REMARK   56  A    between atoms: _132  and  _133
REMARK   57  A    between atoms: _133  and  _134
REMARK   58  A    between atoms: _138  and  _140
REMARK   59  A    between atoms: _140  and  _141
REMARK   60  A    between atoms: _140  and  _143
REMARK   61  A    between atoms: _143  and  _144
REMARK   62  A    between atoms: _144  and  _145
REMARK   63  A    between atoms: _147  and  _149
REMARK   64  A    between atoms: _149  and  _150
REMARK   65  A    between atoms: _149  and  _152
REMARK   66  A    between atoms: _152  and  _153
REMARK   67  A    between atoms: _156  and  _158
REMARK   68  A    between atoms: _158  and  _159
REMARK   69  A    between atoms: _161  and  _163
REMARK   70  A    between atoms: _163  and  _164
REMARK   71  A    between atoms: _166  and  _168
REMARK   72  A    between atoms: _168  and  _169
REMARK   73  A    between atoms: _168  and  _171
REMARK   74  A    between atoms: _171  and  _172
REMARK   75  A    between atoms: _175  and  _177
REMARK   76  A    between atoms: _177  and  _178
REMARK   77  A    between atoms: _180  and  _182
REMARK   78  A    between atoms: _182  and  _183
REMARK   79  A    between atoms: _185  and  _187
REMARK   80  A    between atoms: _187  and  _188
REMARK   81  A    between atoms: _187  and  _190
REMARK   82  A    between atoms: _190  and  _191
REMARK   83  A    between atoms: _197  and  _199
REMARK   84  A    between atoms: _199  and  _200
REMARK   85  A    between atoms: _199  and  _202
REMARK   86  A    between atoms: _202  and  _203
REMARK   87  A    between atoms: _206  and  _208
REMARK   88  A    between atoms: _208  and  _209
REMARK   89  A    between atoms: _208  and  _211
REMARK   90  A    between atoms: _214  and  _216
REMARK   91  A    between atoms: _216  and  _217
REMARK   92  A    between atoms: _216  and  _219
REMARK   93  A    between atoms: _219  and  _220
REMARK   94  A    between atoms: _224  and  _225
REMARK   95  A    between atoms: _230  and  _232
REMARK   96  A    between atoms: _232  and  _233
REMARK   97  A    between atoms: _232  and  _235
REMARK   98  A    between atoms: _235  and  _236
REMARK   99  A    between atoms: _240  and  _241
REMARK  100  A    between atoms: _246  and  _248
REMARK  101  A    between atoms: _248  and  _249
REMARK  102  A    between atoms: _248  and  _251
REMARK  103  A    between atoms: _254  and  _256
REMARK  104  A    between atoms: _256  and  _257
REMARK  105  A    between atoms: _256  and  _259
REMARK  106  A    between atoms: _259  and  _260
REMARK  107  A    between atoms: _265  and  _267
REMARK  108  A    between atoms: _267  and  _268
REMARK  109  A    between atoms: _267  and  _270
REMARK  110  A    between atoms: _270  and  _271
REMARK  111  A    between atoms: _274  and  _276
REMARK  112  A    between atoms: _276  and  _277
REMARK  113  A    between atoms: _276  and  _279
REMARK  114  A    between atoms: _279  and  _280
REMARK  115  A    between atoms: _283  and  _285
REMARK  116  A    between atoms: _285  and  _286
REMARK  117  A    between atoms: _288  and  _290
REMARK  118  A    between atoms: _290  and  _291
REMARK  119  A    between atoms: _290  and  _293
REMARK  120  A    between atoms: _293  and  _294
REMARK  121  A    between atoms: _294  and  _295
REMARK  122  A    between atoms: _295  and  _296
REMARK  123  A    between atoms: _305  and  _307
REMARK  124  A    between atoms: _307  and  _308
REMARK  125  A    between atoms: _307  and  _310
REMARK  126  A    between atoms: _310  and  _311
REMARK  127  A    between atoms: _316  and  _318
REMARK  128  A    between atoms: _318  and  _319
REMARK  129  A    between atoms: _318  and  _321
REMARK  130  A    between atoms: _321  and  _322
REMARK  131  A    between atoms: _322  and  _323
REMARK  132  A    between atoms: _323  and  _324
REMARK  133  A    between atoms: _334  and  _335
REMARK  134  A    between atoms: _340  and  _342
REMARK  135  A    between atoms: _342  and  _343
REMARK  136  A    between atoms: _342  and  _345
REMARK  137  A    between atoms: _345  and  _346
REMARK  138  A    between atoms: _349  and  _351
REMARK  139  A    between atoms: _351  and  _352
REMARK  140  A    between atoms: _351  and  _354
REMARK  141  A    between atoms: _354  and  _355
REMARK  142  A    between atoms: _358  and  _360
REMARK  143  A    between atoms: _360  and  _361
REMARK  144  A    between atoms: _360  and  _363
REMARK  145  A    between atoms: _363  and  _364
REMARK  146  A    between atoms: _367  and  _369
REMARK  147  A    between atoms: _369  and  _370
REMARK  148  A    between atoms: _369  and  _372
REMARK  149  A    between atoms: _372  and  _373
REMARK  150  A    between atoms: _376  and  _378
REMARK  151  A    between atoms: _378  and  _379
REMARK  152  A    between atoms: _378  and  _381
REMARK  153  A    between atoms: _381  and  _382
REMARK  154  A    between atoms: _385  and  _387
REMARK  155  A    between atoms: _387  and  _388
REMARK  156  A    between atoms: _390  and  _392
REMARK  157  A    between atoms: _392  and  _393
REMARK  158  A    between atoms: _396  and  _398
REMARK  159  A    between atoms: _398  and  _399
REMARK  160  A    between atoms: _398  and  _401
REMARK  161  A    between atoms: _401  and  _402
REMARK  162  A    between atoms: _405  and  _407
REMARK  163  A    between atoms: _407  and  _408
REMARK  164  A    between atoms: _407  and  _410
REMARK  165  A    between atoms: _410  and  _411
REMARK  166  A    between atoms: _414  and  _416
REMARK  167  A    between atoms: _416  and  _417
REMARK  168  A    between atoms: _416  and  _419
REMARK  169  A    between atoms: _419  and  _420
REMARK  170  A    between atoms: _423  and  _425
REMARK  171  A    between atoms: _425  and  _426
REMARK  172  A    between atoms: _425  and  _428
REMARK  173  A    between atoms: _431  and  _433
REMARK  174  A    between atoms: _433  and  _434
REMARK  175  A    between atoms: _433  and  _436
REMARK  176  A    between atoms: _436  and  _437
REMARK  177  A    between atoms: _440  and  _442
REMARK  178  A    between atoms: _442  and  _443
REMARK  179  A    between atoms: _442  and  _445
REMARK  180  A    between atoms: _445  and  _446
REMARK  181  A    between atoms: _446  and  _447
REMARK  182  A    between atoms: _447  and  _448
REMARK  183  A    between atoms: _448  and  _449
REMARK  184  A    between atoms: _453  and  _455
REMARK  185  A    between atoms: _455  and  _456
REMARK  186  A    between atoms: _455  and  _458
REMARK  187  A    between atoms: _458  and  _459
REMARK  188  A    between atoms: _459  and  _460
REMARK  189  A    between atoms: _462  and  _464
REMARK  190  A    between atoms: _464  and  _465
REMARK  191  A    between atoms: _464  and  _467
REMARK  192  A    between atoms: _467  and  _468
REMARK  193  A    between atoms: _471  and  _473
REMARK  194  A    between atoms: _473  and  _474
REMARK  195  A    between atoms: _476  and  _478
REMARK  196  A    between atoms: _478  and  _479
REMARK  197  A    between atoms: _481  and  _483
REMARK  198  A    between atoms: _483  and  _484
REMARK  199  A    between atoms: _483  and  _486
REMARK  200  A    between atoms: _486  and  _487
REMARK  201  A    between atoms: _490  and  _492
REMARK  202  A    between atoms: _492  and  _493
REMARK  203  A    between atoms: _495  and  _497
REMARK  204  A    between atoms: _497  and  _498
REMARK  205  A    between atoms: _500  and  _502
REMARK  206  A    between atoms: _502  and  _503
REMARK  207  A    between atoms: _502  and  _505
REMARK  208  A    between atoms: _505  and  _506
REMARK  209  A    between atoms: _512  and  _514
REMARK  210  A    between atoms: _514  and  _515
REMARK  211  A    between atoms: _514  and  _517
REMARK  212  A    between atoms: _517  and  _518
REMARK  213  A    between atoms: _521  and  _523
REMARK  214  A    between atoms: _523  and  _524
REMARK  215  A    between atoms: _523  and  _526
REMARK  216  A    between atoms: _529  and  _531
REMARK  217  A    between atoms: _531  and  _532
REMARK  218  A    between atoms: _531  and  _534
REMARK  219  A    between atoms: _534  and  _535
REMARK  220  A    between atoms: _539  and  _540
REMARK  221  A    between atoms: _545  and  _547
REMARK  222  A    between atoms: _547  and  _548
REMARK  223  A    between atoms: _547  and  _550
REMARK  224  A    between atoms: _550  and  _551
REMARK  225  A    between atoms: _555  and  _556
REMARK  226  A    between atoms: _561  and  _563
REMARK  227  A    between atoms: _563  and  _564
REMARK  228  A    between atoms: _563  and  _566
REMARK  229  A    between atoms: _569  and  _571
REMARK  230  A    between atoms: _571  and  _572
REMARK  231  A    between atoms: _571  and  _574
REMARK  232  A    between atoms: _574  and  _575
REMARK  233  A    between atoms: _580  and  _582
REMARK  234  A    between atoms: _582  and  _583
REMARK  235  A    between atoms: _582  and  _585
REMARK  236  A    between atoms: _585  and  _586
REMARK  237  A    between atoms: _589  and  _591
REMARK  238  A    between atoms: _591  and  _592
REMARK  239  A    between atoms: _591  and  _594
REMARK  240  A    between atoms: _594  and  _595
REMARK  241  A    between atoms: _598  and  _600
REMARK  242  A    between atoms: _600  and  _601
REMARK  243  A    between atoms: _603  and  _605
REMARK  244  A    between atoms: _605  and  _606
REMARK  245  A    between atoms: _605  and  _608
REMARK  246  A    between atoms: _608  and  _609
REMARK  247  A    between atoms: _609  and  _610
REMARK  248  A    between atoms: _610  and  _611
REMARK  249  A    between atoms: _620  and  _622
REMARK  250  A    between atoms: _622  and  _623
REMARK  251  A    between atoms: _622  and  _625
REMARK  252  A    between atoms: _625  and  _626
REMARK                            x       y       z     vdW  Elec       q    Type
REMARK                         _______ _______ _______ _____ _____    ______ ____
ROOT
ATOM      1  C   ALA A   6      11.393  30.515   5.800  0.00  0.00    +0.241 C 
ATOM      2  O   ALA A   6      12.064  31.547   5.803  0.00  0.00    -0.273 OA
ATOM      3  N   ASP A   7      10.062  30.525   5.767  0.00  0.00    -0.297 N 
ATOM      4  H   ASP A   7       9.540  29.625   5.752  0.00  0.00    +0.150 HD
ENDROOT
BRANCH   1   5
ATOM      5  CA  ALA A   6      12.080  29.147   5.834  0.00  0.00    +0.149 C 
ATOM      6  CB  ALA A   6      12.830  28.975   7.166  0.00  0.00    +0.031 C 
BRANCH   5   8
ATOM      7  C   GLY A   5      12.694  28.332   3.615  0.00  0.00    +0.243 C 
ATOM      8  N   ALA A   6      13.017  29.001   4.720  0.00  0.00    -0.297 N 
ATOM      9  H   ALA A   6      13.961  29.431   4.793  0.00  0.00    +0.150 HD
ATOM     10  O   GLY A   5      11.600  27.787   3.461  0.00  0.00    -0.273 OA
BRANCH   7  11
ATOM     11  CA  GLY A   5      13.760  28.256   2.533  0.00  0.00    +0.176 C 
BRANCH  11  13
ATOM     12  C   THR A   4      14.973  30.345   2.484  0.00  0.00    +0.243 C 
ATOM     13  N   GLY A   5      14.934  29.064   2.831  0.00  0.00    -0.295 N 
ATOM     14  H   GLY A   5      15.747  28.635   3.318  0.00  0.00    +0.150 HD
ATOM     15  O   THR A   4      14.043  30.907   1.903  0.00  0.00    -0.273 OA
BRANCH  12  16
ATOM     16  CA  THR A   4      16.244  31.121   2.839  0.00  0.00    +0.176 C 
BRANCH  16  19
ATOM     17  C   ASP A   3      16.704  30.275   5.066  0.00  0.00    +0.241 C 
ATOM     18  O   ASP A   3      15.618  30.681   5.468  0.00  0.00    -0.273 OA
ATOM     19  N   THR A   4      17.097  30.417   3.800  0.00  0.00    -0.295 N 
ATOM     20  H   THR A   4      18.011  30.027   3.494  0.00  0.00    +0.150 HD
BRANCH  17  21
ATOM     21  CA  ASP A   3      17.642  29.541   6.020  0.00  0.00    +0.160 C 
BRANCH  21  23
ATOM     22  C   LEU A   2      19.771  30.375   6.832  0.00  0.00    +0.241 C 
ATOM     23  N   ASP A   3      18.448  30.393   6.882  0.00  0.00    -0.297 N 
ATOM     24  H   ASP A   3      17.974  31.031   7.553  0.00  0.00    +0.150 HD
ATOM     25  O   LEU A   2      20.398  29.731   5.994  0.00  0.00    -0.273 OA
BRANCH  22  26
ATOM     26  CA  LEU A   2      20.496  31.221   7.873  0.00  0.00    +0.149 C 
BRANCH  26  29
ATOM     27  C   LEU A   1      20.335  29.584   9.682  0.00  0.00    +0.238 C 
ATOM     28  O   LEU A   1      19.156  29.860   9.896  0.00  0.00    -0.274 OA
ATOM     29  N   LEU A   2      21.068  30.200   8.753  0.00  0.00    -0.297 N 
ATOM     30  H   LEU A   2      22.072  29.948   8.651  0.00  0.00    +0.150 HD
BRANCH  27  31
ATOM     31  CA  LEU A   1      21.029  28.494  10.495  0.00  0.00    +0.145 C 
BRANCH  31  32
ATOM     32  N   LEU A   1      20.824  28.642  11.928  0.00  0.00    -0.238 NA
ATOM     33  H   LEU A   1      19.940  28.288  12.346  0.00  0.00    +0.142 HD
ENDBRANCH  31  32
BRANCH  31  34
ATOM     34  CB  LEU A   1      20.492  27.133  10.060  0.00  0.00    +0.026 C 
BRANCH  34  35
ATOM     35  CG  LEU A   1      20.621  26.733   8.593  0.00  0.00    +0.002 C 
ATOM     36  CD2 LEU A   1      19.785  25.487   8.355  0.00  0.00    +0.000 C 
ATOM     37  CD1 LEU A   1      22.070  26.459   8.247  0.00  0.00    +0.000 C 
ENDBRANCH  34  35
ENDBRANCH  31  34
ENDBRANCH  27  31
ENDBRANCH  26  29
BRANCH  26  38
ATOM     38  CB  LEU A   2      21.604  32.051   7.220  0.00  0.00    +0.029 C 
BRANCH  38  39
ATOM     39  CG  LEU A   2      22.489  32.810   8.218  0.00  0.00    +0.002 C 
ATOM     40  CD2 LEU A   2      21.625  33.718   9.096  0.00  0.00    +0.000 C 
ATOM     41  CD1 LEU A   2      23.518  33.629   7.458  0.00  0.00    +0.000 C 
ENDBRANCH  38  39
ENDBRANCH  26  38
ENDBRANCH  22  26
ENDBRANCH  21  23
BRANCH  21  42
ATOM     42  CB  ASP A   3      16.831  28.624   6.935  0.00  0.00    +0.143 C 
BRANCH  42  43
ATOM     43  CG  ASP A   3      16.183  27.476   6.201  0.00  0.00    +0.367 C 
ATOM     44  OD2 ASP A   3      15.767  26.519   6.884  0.00  0.00    -0.246 OA
ATOM     45  OD1 ASP A   3      16.085  27.534   4.961  0.00  0.00    -0.246 OA
ENDBRANCH  42  43
ENDBRANCH  21  42
ENDBRANCH  17  21
ENDBRANCH  16  19
BRANCH  16  46
ATOM     46  CB  THR A   4      16.994  31.438   1.521  0.00  0.00    +0.137 C 
ATOM     47  CG2 THR A   4      18.184  32.366   1.786  0.00  0.00    +0.034 C 
BRANCH  46  48
ATOM     48  OG1 THR A   4      17.449  30.221   0.918  0.00  0.00    -0.382 OA
ATOM     49  HG1 THR A   4      16.671  29.640   0.722  0.00  0.00    +0.210 HD
ENDBRANCH  46  48
ENDBRANCH  16  46
ENDBRANCH  12  16
ENDBRANCH  11  13
ENDBRANCH   7  11
ENDBRANCH   5   8
ENDBRANCH   1   5
BRANCH   3  50
ATOM     50  CA  ASP A   7       9.327  31.789   5.752  0.00  0.00    +0.160 C 
BRANCH  50  51
ATOM     51  C   ASP A   7       9.510  32.531   7.074  0.00  0.00    +0.241 C 
ATOM     52  N   ASP A   8       9.522  31.776   8.170  0.00  0.00    -0.297 N 
ATOM     53  H   ASP A   8       9.434  30.744   8.074  0.00  0.00    +0.150 HD
ATOM     54  O   ASP A   7       9.636  33.756   7.098  0.00  0.00    -0.273 OA
BRANCH  52  55
ATOM     55  CA  ASP A   8       9.655  32.355   9.501  0.00  0.00    +0.160 C 
BRANCH  55  56
ATOM     56  C   ASP A   8      10.852  31.836  10.286  0.00  0.00    +0.241 C 
ATOM     57  N   THR A   9      11.035  32.409  11.467  0.00  0.00    -0.295 N 
ATOM     58  H   THR A   9      10.361  33.139  11.775  0.00  0.00    +0.150 HD
ATOM     59  O   ASP A   8      11.575  30.945   9.845  0.00  0.00    -0.273 OA
BRANCH  57  60
ATOM     60  CA  THR A   9      12.137  32.063  12.352  0.00  0.00    +0.176 C 
BRANCH  60  61
ATOM     61  C   THR A   9      11.621  31.176  13.479  0.00  0.00    +0.243 C 
ATOM     62  O   THR A   9      10.634  31.506  14.134  0.00  0.00    -0.273 OA
ATOM     63  N   VAL A  10      12.279  30.042  13.694  0.00  0.00    -0.297 N 
ATOM     64  H   VAL A  10      13.104  29.807  13.106  0.00  0.00    +0.150 HD
BRANCH  63  65
ATOM     65  CA  VAL A  10      11.859  29.125  14.744  0.00  0.00    +0.149 C 
BRANCH  65  66
ATOM     66  C   VAL A  10      13.052  28.646  15.563  0.00  0.00    +0.241 C 
ATOM     67  N   LEU A  11      12.922  28.748  16.884  0.00  0.00    -0.298 N 
ATOM     68  H   LEU A  11      12.037  29.129  17.275  0.00  0.00    +0.150 HD
ATOM     69  O   VAL A  10      14.070  28.209  15.013  0.00  0.00    -0.273 OA
BRANCH  67  70
ATOM     70  CA  LEU A  11      13.982  28.342  17.800  0.00  0.00    +0.137 C 
BRANCH  70  71
ATOM     71  C   LEU A  11      13.524  27.220  18.719  0.00  0.00    +0.227 C 
ATOM     72  O   LEU A  11      12.334  27.071  18.988  0.00  0.00    -0.286 OA
ENDBRANCH  70  71
BRANCH  70  73
ATOM     73  CB  LEU A  11      14.428  29.531  18.649  0.00  0.00    +0.028 C 
BRANCH  73  74
ATOM     74  CG  LEU A  11      14.931  30.754  17.880  0.00  0.00    +0.002 C 
ATOM     75  CD2 LEU A  11      15.325  31.844  18.867  0.00  0.00    +0.000 C 
ATOM     76  CD1 LEU A  11      16.116  30.362  17.005  0.00  0.00    +0.000 C 
ENDBRANCH  73  74
ENDBRANCH  70  73
ENDBRANCH  67  70
ENDBRANCH  65  66
BRANCH  65  77
ATOM     77  CB  VAL A  10      11.101  27.909  14.153  0.00  0.00    +0.027 C 
ATOM     78  CG2 VAL A  10      10.663  26.971  15.276  0.00  0.00    +0.002 C 
ATOM     79  CG1 VAL A  10      11.971  27.180  13.153  0.00  0.00    +0.002 C 
ENDBRANCH  65  77
ENDBRANCH  63  65
ENDBRANCH  60  61
BRANCH  60  80
ATOM     80  CB  THR A   9      12.754  33.356  12.914  0.00  0.00    +0.137 C 
ATOM     81  CG2 THR A   9      13.817  33.055  13.971  0.00  0.00    +0.034 C 
BRANCH  80  82
ATOM     82  OG1 THR A   9      13.339  34.094  11.832  0.00  0.00    -0.382 OA
ATOM     83  HG1 THR A   9      12.638  34.316  11.168  0.00  0.00    +0.210 HD
ENDBRANCH  80  82
ENDBRANCH  60  80
ENDBRANCH  57  60
ENDBRANCH  55  56
BRANCH  55  84
ATOM     84  CB  ASP A   8       8.378  32.106  10.307  0.00  0.00    +0.143 C 
BRANCH  84  85
ATOM     85  CG  ASP A   8       7.185  32.862   9.754  0.00  0.00    +0.367 C 
ATOM     86  OD2 ASP A   8       7.197  34.112   9.810  0.00  0.00    -0.246 OA
ATOM     87  OD1 ASP A   8       6.246  32.208   9.259  0.00  0.00    -0.246 OA
ENDBRANCH  84  85
ENDBRANCH  55  84
ENDBRANCH  52  55
ENDBRANCH  50  51
BRANCH  50  88
ATOM     88  CB  ASP A   7       7.821  31.563   5.548  0.00  0.00    +0.143 C 
BRANCH  88  89
ATOM     89  CG  ASP A   7       7.491  30.953   4.203  0.00  0.00    +0.367 C 
ATOM     90  OD2 ASP A   7       6.498  30.207   4.134  0.00  0.00    -0.246 OA
ATOM     91  OD1 ASP A   7       8.203  31.229   3.217  0.00  0.00    -0.246 OA
ENDBRANCH  88  89
ENDBRANCH  50  88
ENDBRANCH   3  50
TORSDOF 39
REMARK  Name = ../refined-set-2016/1w5y/1w5y_pocket.pdb
REMARK  252 active torsions:
REMARK  status: ('A' for Active; 'I' for Inactive)
REMARK    1  A    between atoms: _1  and  _3
REMARK    2  A    between atoms: _3  and  _4
REMARK    3  A    between atoms: _3  and  _6
REMARK    4  A    between atoms: _6  and  _7
REMARK    5  A    between atoms: _7  and  _8
REMARK    6  A    between atoms: _8  and  _9
REMARK    7  A    between atoms: _19  and  _20
REMARK    8  A    between atoms: _25  and  _27
REMARK    9  A    between atoms: _27  and  _28
REMARK   10  A    between atoms: _27  and  _30
REMARK   11  A    between atoms: _30  and  _31
REMARK   12  A    between atoms: _34  and  _36
REMARK   13  A    between atoms: _36  and  _37
REMARK   14  A    between atoms: _36  and  _39
REMARK   15  A    between atoms: _39  and  _40
REMARK   16  A    between atoms: _43  and  _45
REMARK   17  A    between atoms: _45  and  _46
REMARK   18  A    between atoms: _45  and  _48
REMARK   19  A    between atoms: _48  and  _49
REMARK   20  A    between atoms: _52  and  _54
REMARK   21  A    between atoms: _54  and  _55
REMARK   22  A    between atoms: _54  and  _57
REMARK   23  A    between atoms: _57  and  _58
REMARK   24  A    between atoms: _61  and  _63
REMARK   25  A    between atoms: _63  and  _64
REMARK   26  A    between atoms: _63  and  _66
REMARK   27  A    between atoms: _66  and  _67
REMARK   28  A    between atoms: _70  and  _72
REMARK   29  A    between atoms: _72  and  _73
REMARK   30  A    between atoms: _75  and  _77
REMARK   31  A    between atoms: _77  and  _78
REMARK   32  A    between atoms: _81  and  _83
REMARK   33  A    between atoms: _83  and  _84
REMARK   34  A    between atoms: _83  and  _86
REMARK   35  A    between atoms: _86  and  _87
REMARK   36  A    between atoms: _90  and  _92
REMARK   37  A    between atoms: _92  and  _93
REMARK   38  A    between atoms: _92  and  _95
REMARK   39  A    between atoms: _95  and  _96
REMARK   40  A    between atoms: _99  and  _101
REMARK   41  A    between atoms: _101  and  _102
REMARK   42  A    between atoms: _101  and  _104
REMARK   43  A    between atoms: _104  and  _105
REMARK   44  A    between atoms: _108  and  _110
REMARK   45  A    between atoms: _110  and  _111
REMARK   46  A    between atoms: _110  and  _113
REMARK   47  A    between atoms: _116  and  _118
REMARK   48  A    between atoms: _118  and  _119
REMARK   49  A    between atoms: _118  and  _121
REMARK   50  A    between atoms: _121  and  _122
REMARK   51  A    between atoms: _125  and  _127
REMARK   52  A    between atoms: _127  and  _128
REMARK   53  A    between atoms: _127  and  _130
REMARK   54  A    between atoms: _130  and  _131
REMARK   55  A    between atoms: _131  and  _132
REMARK   56  A    between atoms: _132  and  _133
REMARK   57  A    between atoms: _133  and  _134
REMARK   58  A    between atoms: _138  and  _140
REMARK   59  A    between atoms: _140  and  _141
REMARK   60  A    between atoms: _140  and  _143
REMARK   61  A    between atoms: _143  and  _144
REMARK   62  A    between atoms: _144  and  _145
REMARK   63  A    between atoms: _147  and  _149
REMARK   64  A    between atoms: _149  and  _150
REMARK   65  A    between atoms: _149  and  _152
REMARK   66  A    between atoms: _152  and  _153
REMARK   67  A    between atoms: _156  and  _158
REMARK   68  A    between atoms: _158  and  _159
REMARK   69  A    between atoms: _161  and  _163
REMARK   70  A    between atoms: _163  and  _164
REMARK   71  A    between atoms: _166  and  _168
REMARK   72  A    between atoms: _168  and  _169
REMARK   73  A    between atoms: _168  and  _171
REMARK   74  A    between atoms: _171  and  _172
REMARK   75  A    between atoms: _175  and  _177
REMARK   76  A    between atoms: _177  and  _178
REMARK   77  A    between atoms: _180  and  _182
REMARK   78  A    between atoms: _182  and  _183
REMARK   79  A    between atoms: _185  and  _187
REMARK   80  A    between atoms: _187  and  _188
REMARK   81  A    between atoms: _187  and  _190
REMARK   82  A    between atoms: _190  and  _191
REMARK   83  A    between atoms: _197  and  _199
REMARK   84  A    between atoms: _199  and  _200
REMARK   85  A    between atoms: _199  and  _202
REMARK   86  A    between atoms: _202  and  _203
REMARK   87  A    between atoms: _206  and  _208
REMARK   88  A    between atoms: _208  and  _209
REMARK   89  A    between atoms: _208  and  _211
REMARK   90  A    between atoms: _214  and  _216
REMARK   91  A    between atoms: _216  and  _217
REMARK   92  A    between atoms: _216  and  _219
REMARK   93  A    between atoms: _219  and  _220
REMARK   94  A    between atoms: _224  and  _225
REMARK   95  A    between atoms: _230  and  _232
REMARK   96  A    between atoms: _232  and  _233
REMARK   97  A    between atoms: _232  and  _235
REMARK   98  A    between atoms: _235  and  _236
REMARK   99  A    between atoms: _240  and  _241
REMARK  100  A    between atoms: _246  and  _248
REMARK  101  A    between atoms: _248  and  _249
REMARK  102  A    between atoms: _248  and  _251
REMARK  103  A    between atoms: _254  and  _256
REMARK  104  A    between atoms: _256  and  _257
REMARK  105  A    between atoms: _256  and  _259
REMARK  106  A    between atoms: _259  and  _260
REMARK  107  A    between atoms: _265  and  _267
REMARK  108  A    between atoms: _267  and  _268
REMARK  109  A    between atoms: _267  and  _270
REMARK  110  A    between atoms: _270  and  _271
REMARK  111  A    between atoms: _274  and  _276
REMARK  112  A    between atoms: _276  and  _277
REMARK  113  A    between atoms: _276  and  _279
REMARK  114  A    between atoms: _279  and  _280
REMARK  115  A    between atoms: _283  and  _285
REMARK  116  A    between atoms: _285  and  _286
REMARK  117  A    between atoms: _288  and  _290
REMARK  118  A    between atoms: _290  and  _291
REMARK  119  A    between atoms: _290  and  _293
REMARK  120  A    between atoms: _293  and  _294
REMARK  121  A    between atoms: _294  and  _295
REMARK  122  A    between atoms: _295  and  _296
REMARK  123  A    between atoms: _305  and  _307
REMARK  124  A    between atoms: _307  and  _308
REMARK  125  A    between atoms: _307  and  _310
REMARK  126  A    between atoms: _310  and  _311
REMARK  127  A    between atoms: _316  and  _318
REMARK  128  A    between atoms: _318  and  _319
REMARK  129  A    between atoms: _318  and  _321
REMARK  130  A    between atoms: _321  and  _322
REMARK  131  A    between atoms: _322  and  _323
REMARK  132  A    between atoms: _323  and  _324
REMARK  133  A    between atoms: _334  and  _335
REMARK  134  A    between atoms: _340  and  _342
REMARK  135  A    between atoms: _342  and  _343
REMARK  136  A    between atoms: _342  and  _345
REMARK  137  A    between atoms: _345  and  _346
REMARK  138  A    between atoms: _349  and  _351
REMARK  139  A    between atoms: _351  and  _352
REMARK  140  A    between atoms: _351  and  _354
REMARK  141  A    between atoms: _354  and  _355
REMARK  142  A    between atoms: _358  and  _360
REMARK  143  A    between atoms: _360  and  _361
REMARK  144  A    between atoms: _360  and  _363
REMARK  145  A    between atoms: _363  and  _364
REMARK  146  A    between atoms: _367  and  _369
REMARK  147  A    between atoms: _369  and  _370
REMARK  148  A    between atoms: _369  and  _372
REMARK  149  A    between atoms: _372  and  _373
REMARK  150  A    between atoms: _376  and  _378
REMARK  151  A    between atoms: _378  and  _379
REMARK  152  A    between atoms: _378  and  _381
REMARK  153  A    between atoms: _381  and  _382
REMARK  154  A    between atoms: _385  and  _387
REMARK  155  A    between atoms: _387  and  _388
REMARK  156  A    between atoms: _390  and  _392
REMARK  157  A    between atoms: _392  and  _393
REMARK  158  A    between atoms: _396  and  _398
REMARK  159  A    between atoms: _398  and  _399
REMARK  160  A    between atoms: _398  and  _401
REMARK  161  A    between atoms: _401  and  _402
REMARK  162  A    between atoms: _405  and  _407
REMARK  163  A    between atoms: _407  and  _408
REMARK  164  A    between atoms: _407  and  _410
REMARK  165  A    between atoms: _410  and  _411
REMARK  166  A    between atoms: _414  and  _416
REMARK  167  A    between atoms: _416  and  _417
REMARK  168  A    between atoms: _416  and  _419
REMARK  169  A    between atoms: _419  and  _420
REMARK  170  A    between atoms: _423  and  _425
REMARK  171  A    between atoms: _425  and  _426
REMARK  172  A    between atoms: _425  and  _428
REMARK  173  A    between atoms: _431  and  _433
REMARK  174  A    between atoms: _433  and  _434
REMARK  175  A    between atoms: _433  and  _436
REMARK  176  A    between atoms: _436  and  _437
REMARK  177  A    between atoms: _440  and  _442
REMARK  178  A    between atoms: _442  and  _443
REMARK  179  A    between atoms: _442  and  _445
REMARK  180  A    between atoms: _445  and  _446
REMARK  181  A    between atoms: _446  and  _447
REMARK  182  A    between atoms: _447  and  _448
REMARK  183  A    between atoms: _448  and  _449
REMARK  184  A    between atoms: _453  and  _455
REMARK  185  A    between atoms: _455  and  _456
REMARK  186  A    between atoms: _455  and  _458
REMARK  187  A    between atoms: _458  and  _459
REMARK  188  A    between atoms: _459  and  _460
REMARK  189  A    between atoms: _462  and  _464
REMARK  190  A    between atoms: _464  and  _465
REMARK  191  A    between atoms: _464  and  _467
REMARK  192  A    between atoms: _467  and  _468
REMARK  193  A    between atoms: _471  and  _473
REMARK  194  A    between atoms: _473  and  _474
REMARK  195  A    between atoms: _476  and  _478
REMARK  196  A    between atoms: _478  and  _479
REMARK  197  A    between atoms: _481  and  _483
REMARK  198  A    between atoms: _483  and  _484
REMARK  199  A    between atoms: _483  and  _486
REMARK  200  A    between atoms: _486  and  _487
REMARK  201  A    between atoms: _490  and  _492
REMARK  202  A    between atoms: _492  and  _493
REMARK  203  A    between atoms: _495  and  _497
REMARK  204  A    between atoms: _497  and  _498
REMARK  205  A    between atoms: _500  and  _502
REMARK  206  A    between atoms: _502  and  _503
REMARK  207  A    between atoms: _502  and  _505
REMARK  208  A    between atoms: _505  and  _506
REMARK  209  A    between atoms: _512  and  _514
REMARK  210  A    between atoms: _514  and  _515
REMARK  211  A    between atoms: _514  and  _517
REMARK  212  A    between atoms: _517  and  _518
REMARK  213  A    between atoms: _521  and  _523
REMARK  214  A    between atoms: _523  and  _524
REMARK  215  A    between atoms: _523  and  _526
REMARK  216  A    between atoms: _529  and  _531
REMARK  217  A    between atoms: _531  and  _532
REMARK  218  A    between atoms: _531  and  _534
REMARK  219  A    between atoms: _534  and  _535
REMARK  220  A    between atoms: _539  and  _540
REMARK  221  A    between atoms: _545  and  _547
REMARK  222  A    between atoms: _547  and  _548
REMARK  223  A    between atoms: _547  and  _550
REMARK  224  A    between atoms: _550  and  _551
REMARK  225  A    between atoms: _555  and  _556
REMARK  226  A    between atoms: _561  and  _563
REMARK  227  A    between atoms: _563  and  _564
REMARK  228  A    between atoms: _563  and  _566
REMARK  229  A    between atoms: _569  and  _571
REMARK  230  A    between atoms: _571  and  _572
REMARK  231  A    between atoms: _571  and  _574
REMARK  232  A    between atoms: _574  and  _575
REMARK  233  A    between atoms: _580  and  _582
REMARK  234  A    between atoms: _582  and  _583
REMARK  235  A    between atoms: _582  and  _585
REMARK  236  A    between atoms: _585  and  _586
REMARK  237  A    between atoms: _589  and  _591
REMARK  238  A    between atoms: _591  and  _592
REMARK  239  A    between atoms: _591  and  _594
REMARK  240  A    between atoms: _594  and  _595
REMARK  241  A    between atoms: _598  and  _600
REMARK  242  A    between atoms: _600  and  _601
REMARK  243  A    between atoms: _603  and  _605
REMARK  244  A    between atoms: _605  and  _606
REMARK  245  A    between atoms: _605  and  _608
REMARK  246  A    between atoms: _608  and  _609
REMARK  247  A    between atoms: _609  and  _610
REMARK  248  A    between atoms: _610  and  _611
REMARK  249  A    between atoms: _620  and  _622
REMARK  250  A    between atoms: _622  and  _623
REMARK  251  A    between atoms: _622  and  _625
REMARK  252  A    between atoms: _625  and  _626
REMARK                            x       y       z     vdW  Elec       q    Type
REMARK                         _______ _______ _______ _____ _____    ______ ____
ROOT
ATOM      1  C   GLY A   5       8.159  20.173   5.744  0.00  0.00    +0.243 C 
ATOM      2  O   GLY A   5       7.148  19.498   5.547  0.00  0.00    -0.273 OA
ATOM      3  N   ILE A   6       9.388  19.712   5.538  0.00  0.00    -0.297 N 
ATOM      4  H   ILE A   6      10.204  20.337   5.694  0.00  0.00    +0.150 HD
ENDROOT
BRANCH   3   5
ATOM      5  CA  ILE A   6       9.604  18.346   5.098  0.00  0.00    +0.149 C 
BRANCH   5   6
ATOM      6  C   ILE A   6       9.241  17.453   6.281  0.00  0.00    +0.241 C 
ATOM      7  O   ILE A   6       9.720  17.670   7.389  0.00  0.00    -0.273 OA
ATOM      8  N   GLY A   7       8.394  16.458   6.051  0.00  0.00    -0.295 N 
ATOM      9  H   GLY A   7       7.997  16.319   5.100  0.00  0.00    +0.150 HD
BRANCH   8  10
ATOM     10  CA  GLY A   7       8.025  15.565   7.134  0.00  0.00    +0.176 C 
BRANCH  10  11
ATOM     11  C   GLY A   7       6.676  15.853   7.762  0.00  0.00    +0.243 C 
ATOM     12  O   GLY A   7       6.088  14.983   8.400  0.00  0.00    -0.273 OA
ATOM     13  N   GLY A   8       6.180  17.072   7.591  0.00  0.00    -0.295 N 
ATOM     14  H   GLY A   8       6.714  17.782   7.050  0.00  0.00    +0.150 HD
BRANCH  13  15
ATOM     15  CA  GLY A   8       4.891  17.410   8.161  0.00  0.00    +0.176 C 
BRANCH  15  16
ATOM     16  C   GLY A   8       4.882  18.695   8.965  0.00  0.00    +0.243 C 
ATOM     17  N   PHE A   9       3.900  18.807   9.851  0.00  0.00    -0.297 N 
ATOM     18  H   PHE A   9       3.228  18.020   9.958  0.00  0.00    +0.150 HD
ATOM     19  O   GLY A   8       5.753  19.556   8.804  0.00  0.00    -0.273 OA
BRANCH  17  20
ATOM     20  CA  PHE A   9       3.731  19.993  10.679  0.00  0.00    +0.153 C 
BRANCH  20  21
ATOM     21  C   PHE A   9       4.093  19.799  12.146  0.00  0.00    +0.241 C 
ATOM     22  N   ILE A  10       4.405  20.906  12.815  0.00  0.00    -0.298 N 
ATOM     23  H   ILE A  10       4.430  21.810  12.301  0.00  0.00    +0.150 HD
ATOM     24  O   PHE A   9       4.088  18.682  12.655  0.00  0.00    -0.273 OA
BRANCH  22  25
ATOM     25  CA  ILE A  10       4.714  20.902  14.242  0.00  0.00    +0.137 C 
BRANCH  25  26
ATOM     26  C   ILE A  10       4.016  22.115  14.849  0.00  0.00    +0.227 C 
ATOM     27  O   ILE A  10       3.807  23.122  14.172  0.00  0.00    -0.286 OA
ENDBRANCH  25  26
BRANCH  25  28
ATOM     28  CB  ILE A  10       6.240  20.998  14.539  0.00  0.00    +0.026 C 
ATOM     29  CG2 ILE A  10       6.942  19.728  14.079  0.00  0.00    +0.002 C 
BRANCH  28  30
ATOM     30  CG1 ILE A  10       6.840  22.234  13.867  0.00  0.00    +0.002 C 
ATOM     31  CD1 ILE A  10       8.261  22.544  14.310  0.00  0.00    +0.000 C 
ENDBRANCH  28  30
ENDBRANCH  25  28
ENDBRANCH  22  25
ENDBRANCH  20  21
BRANCH  20  32
ATOM     32  CB  PHE A   9       2.278  20.464  10.610  0.00  0.00    +0.055 C 
BRANCH  32  33
ATOM     33  CG  PHE A   9       1.870  20.995   9.272  0.00  0.00    -0.020 A 
ATOM     34  CD2 PHE A   9       1.690  22.359   9.087  0.00  0.00    -0.004 A 
ATOM     35  CE2 PHE A   9       1.291  22.866   7.855  0.00  0.00    -0.000 A 
ATOM     36  CZ  PHE A   9       1.068  22.000   6.792  0.00  0.00    -0.000 A 
ATOM     37  CE1 PHE A   9       1.246  20.630   6.964  0.00  0.00    -0.000 A 
ATOM     38  CD1 PHE A   9       1.647  20.134   8.200  0.00  0.00    -0.004 A 
ENDBRANCH  32  33
ENDBRANCH  20  32
ENDBRANCH  17  20
ENDBRANCH  15  16
ENDBRANCH  13  15
ENDBRANCH  10  11
ENDBRANCH   8  10
ENDBRANCH   5   6
BRANCH   5  39
ATOM     39  CB  ILE A   6      11.088  18.091   4.737  0.00  0.00    +0.027 C 
ATOM     40  CG2 ILE A   6      11.361  16.602   4.679  0.00  0.00    +0.002 C 
BRANCH  39  41
ATOM     41  CG1 ILE A   6      11.436  18.766   3.409  0.00  0.00    +0.002 C 
ATOM     42  CD1 ILE A   6      11.595  20.250   3.517  0.00  0.00    +0.000 C 
ENDBRANCH  39  41
ENDBRANCH   5  39
ENDBRANCH   3   5
BRANCH   1  43
ATOM     43  CA  GLY A   5       8.042  21.597   6.236  0.00  0.00    +0.176 C 
BRANCH  43  45
ATOM     44  C   GLY A   4       6.131  22.788   7.111  0.00  0.00    +0.243 C 
ATOM     45  N   GLY A   5       6.847  21.675   7.050  0.00  0.00    -0.295 N 
ATOM     46  H   GLY A   5       6.546  20.843   7.596  0.00  0.00    +0.150 HD
ATOM     47  O   GLY A   4       6.436  23.824   6.518  0.00  0.00    -0.273 OA
BRANCH  44  48
ATOM     48  CA  GLY A   4       4.898  22.708   7.980  0.00  0.00    +0.176 C 
BRANCH  48  51
ATOM     49  C   ILE A   3       4.491  23.933  10.000  0.00  0.00    +0.241 C 
ATOM     50  O   ILE A   3       4.695  22.931  10.682  0.00  0.00    -0.273 OA
ATOM     51  N   GLY A   4       4.573  23.933   8.675  0.00  0.00    -0.295 N 
ATOM     52  H   GLY A   4       4.404  24.809   8.140  0.00  0.00    +0.150 HD
BRANCH  49  53
ATOM     53  CA  ILE A   3       4.120  25.251  10.650  0.00  0.00    +0.149 C 
BRANCH  53  55
ATOM     54  C   MET A   2       2.058  25.510  11.889  0.00  0.00    +0.241 C 
ATOM     55  N   ILE A   3       3.283  24.997  11.821  0.00  0.00    -0.297 N 
ATOM     56  H   ILE A   3       3.646  24.414  12.602  0.00  0.00    +0.150 HD
ATOM     57  O   MET A   2       1.603  26.238  11.013  0.00  0.00    -0.273 OA
BRANCH  54  58
ATOM     58  CA  MET A   2       1.223  25.188  13.122  0.00  0.00    +0.149 C 
BRANCH  58  61
ATOM     59  C   LYS A   1       1.093  26.818  14.919  0.00  0.00    +0.238 C 
ATOM     60  O   LYS A   1       1.770  26.119  15.674  0.00  0.00    -0.274 OA
ATOM     61  N   MET A   2       0.772  26.451  13.685  0.00  0.00    -0.297 N 
ATOM     62  H   MET A   2       0.183  27.083  13.106  0.00  0.00    +0.150 HD
BRANCH  59  63
ATOM     63  CA  LYS A   1       0.562  28.168  15.372  0.00  0.00    +0.145 C 
BRANCH  63  64
ATOM     64  N   LYS A   1       0.505  28.192  16.825  0.00  0.00    -0.238 NA
ATOM     65  H   LYS A   1       1.188  27.627  17.369  0.00  0.00    +0.142 HD
ENDBRANCH  63  64
BRANCH  63  66
ATOM     66  CB  LYS A   1       1.479  29.286  14.860  0.00  0.00    +0.026 C 
BRANCH  66  67
ATOM     67  CG  LYS A   1       1.508  29.431  13.346  0.00  0.00    -0.000 C 
BRANCH  67  68
ATOM     68  CD  LYS A   1       2.402  30.593  12.917  0.00  0.00    -0.024 C 
BRANCH  68  69
ATOM     69  CE  LYS A   1       2.314  30.834  11.415  0.00  0.00    -0.086 C 
BRANCH  69  70
ATOM     70  NZ  LYS A   1       3.155  31.984  10.977  0.00  0.00    +0.380 N 
ATOM     71  HZ1 LYS A   1       2.838  32.848  11.462  0.00  0.00    -0.089 HD
ATOM     72  HZ2 LYS A   1       4.149  31.796  11.216  0.00  0.00    -0.089 HD
ATOM     73  HZ3 LYS A   1       3.062  32.108   9.949  0.00  0.00    -0.089 HD
ENDBRANCH  69  70
ENDBRANCH  68  69
ENDBRANCH  67  68
ENDBRANCH  66  67
ENDBRANCH  63  66
ENDBRANCH  59  63
ENDBRANCH  58  61
BRANCH  58  74
ATOM     74  CB  MET A   2       0.015  24.346  12.708  0.00  0.00    +0.041 C 
BRANCH  74  75
ATOM     75  CG  MET A   2       0.228  22.860  12.814  0.00  0.00    +0.060 C 
BRANCH  75  76
ATOM     76  SD  MET A   2       0.205  22.328  14.534  0.00  0.00    -0.139 S 
ATOM     77  CE  MET A   2      -1.545  22.084  14.768  0.00  0.00    +0.069 C 
ENDBRANCH  75  76
ENDBRANCH  74  75
ENDBRANCH  58  74
ENDBRANCH  54  58
ENDBRANCH  53  55
BRANCH  53  78
ATOM     78  CB  ILE A   3       5.411  26.024  11.008  0.00  0.00    +0.027 C 
ATOM     79  CG2 ILE A   3       5.054  27.420  11.509  0.00  0.00    +0.002 C 
BRANCH  78  80
ATOM     80  CG1 ILE A   3       6.221  25.259  12.055  0.00  0.00    +0.002 C 
ATOM     81  CD1 ILE A   3       7.541  25.936  12.423  0.00  0.00    +0.000 C 
ENDBRANCH  78  80
ENDBRANCH  53  78
ENDBRANCH  49  53
ENDBRANCH  48  51
ENDBRANCH  44  48
ENDBRANCH  43  45
ENDBRANCH   1  43
TORSDOF 36
REMARK  Name = ../refined-set-2016/1w5y/1w5y_pocket.pdb
REMARK  252 active torsions:
REMARK  status: ('A' for Active; 'I' for Inactive)
REMARK    1  A    between atoms: _1  and  _3
REMARK    2  A    between atoms: _3  and  _4
REMARK    3  A    between atoms: _3  and  _6
REMARK    4  A    between atoms: _6  and  _7
REMARK    5  A    between atoms: _7  and  _8
REMARK    6  A    between atoms: _8  and  _9
REMARK    7  A    between atoms: _19  and  _20
REMARK    8  A    between atoms: _25  and  _27
REMARK    9  A    between atoms: _27  and  _28
REMARK   10  A    between atoms: _27  and  _30
REMARK   11  A    between atoms: _30  and  _31
REMARK   12  A    between atoms: _34  and  _36
REMARK   13  A    between atoms: _36  and  _37
REMARK   14  A    between atoms: _36  and  _39
REMARK   15  A    between atoms: _39  and  _40
REMARK   16  A    between atoms: _43  and  _45
REMARK   17  A    between atoms: _45  and  _46
REMARK   18  A    between atoms: _45  and  _48
REMARK   19  A    between atoms: _48  and  _49
REMARK   20  A    between atoms: _52  and  _54
REMARK   21  A    between atoms: _54  and  _55
REMARK   22  A    between atoms: _54  and  _57
REMARK   23  A    between atoms: _57  and  _58
REMARK   24  A    between atoms: _61  and  _63
REMARK   25  A    between atoms: _63  and  _64
REMARK   26  A    between atoms: _63  and  _66
REMARK   27  A    between atoms: _66  and  _67
REMARK   28  A    between atoms: _70  and  _72
REMARK   29  A    between atoms: _72  and  _73
REMARK   30  A    between atoms: _75  and  _77
REMARK   31  A    between atoms: _77  and  _78
REMARK   32  A    between atoms: _81  and  _83
REMARK   33  A    between atoms: _83  and  _84
REMARK   34  A    between atoms: _83  and  _86
REMARK   35  A    between atoms: _86  and  _87
REMARK   36  A    between atoms: _90  and  _92
REMARK   37  A    between atoms: _92  and  _93
REMARK   38  A    between atoms: _92  and  _95
REMARK   39  A    between atoms: _95  and  _96
REMARK   40  A    between atoms: _99  and  _101
REMARK   41  A    between atoms: _101  and  _102
REMARK   42  A    between atoms: _101  and  _104
REMARK   43  A    between atoms: _104  and  _105
REMARK   44  A    between atoms: _108  and  _110
REMARK   45  A    between atoms: _110  and  _111
REMARK   46  A    between atoms: _110  and  _113
REMARK   47  A    between atoms: _116  and  _118
REMARK   48  A    between atoms: _118  and  _119
REMARK   49  A    between atoms: _118  and  _121
REMARK   50  A    between atoms: _121  and  _122
REMARK   51  A    between atoms: _125  and  _127
REMARK   52  A    between atoms: _127  and  _128
REMARK   53  A    between atoms: _127  and  _130
REMARK   54  A    between atoms: _130  and  _131
REMARK   55  A    between atoms: _131  and  _132
REMARK   56  A    between atoms: _132  and  _133
REMARK   57  A    between atoms: _133  and  _134
REMARK   58  A    between atoms: _138  and  _140
REMARK   59  A    between atoms: _140  and  _141
REMARK   60  A    between atoms: _140  and  _143
REMARK   61  A    between atoms: _143  and  _144
REMARK   62  A    between atoms: _144  and  _145
REMARK   63  A    between atoms: _147  and  _149
REMARK   64  A    between atoms: _149  and  _150
REMARK   65  A    between atoms: _149  and  _152
REMARK   66  A    between atoms: _152  and  _153
REMARK   67  A    between atoms: _156  and  _158
REMARK   68  A    between atoms: _158  and  _159
REMARK   69  A    between atoms: _161  and  _163
REMARK   70  A    between atoms: _163  and  _164
REMARK   71  A    between atoms: _166  and  _168
REMARK   72  A    between atoms: _168  and  _169
REMARK   73  A    between atoms: _168  and  _171
REMARK   74  A    between atoms: _171  and  _172
REMARK   75  A    between atoms: _175  and  _177
REMARK   76  A    between atoms: _177  and  _178
REMARK   77  A    between atoms: _180  and  _182
REMARK   78  A    between atoms: _182  and  _183
REMARK   79  A    between atoms: _185  and  _187
REMARK   80  A    between atoms: _187  and  _188
REMARK   81  A    between atoms: _187  and  _190
REMARK   82  A    between atoms: _190  and  _191
REMARK   83  A    between atoms: _197  and  _199
REMARK   84  A    between atoms: _199  and  _200
REMARK   85  A    between atoms: _199  and  _202
REMARK   86  A    between atoms: _202  and  _203
REMARK   87  A    between atoms: _206  and  _208
REMARK   88  A    between atoms: _208  and  _209
REMARK   89  A    between atoms: _208  and  _211
REMARK   90  A    between atoms: _214  and  _216
REMARK   91  A    between atoms: _216  and  _217
REMARK   92  A    between atoms: _216  and  _219
REMARK   93  A    between atoms: _219  and  _220
REMARK   94  A    between atoms: _224  and  _225
REMARK   95  A    between atoms: _230  and  _232
REMARK   96  A    between atoms: _232  and  _233
REMARK   97  A    between atoms: _232  and  _235
REMARK   98  A    between atoms: _235  and  _236
REMARK   99  A    between atoms: _240  and  _241
REMARK  100  A    between atoms: _246  and  _248
REMARK  101  A    between atoms: _248  and  _249
REMARK  102  A    between atoms: _248  and  _251
REMARK  103  A    between atoms: _254  and  _256
REMARK  104  A    between atoms: _256  and  _257
REMARK  105  A    between atoms: _256  and  _259
REMARK  106  A    between atoms: _259  and  _260
REMARK  107  A    between atoms: _265  and  _267
REMARK  108  A    between atoms: _267  and  _268
REMARK  109  A    between atoms: _267  and  _270
REMARK  110  A    between atoms: _270  and  _271
REMARK  111  A    between atoms: _274  and  _276
REMARK  112  A    between atoms: _276  and  _277
REMARK  113  A    between atoms: _276  and  _279
REMARK  114  A    between atoms: _279  and  _280
REMARK  115  A    between atoms: _283  and  _285
REMARK  116  A    between atoms: _285  and  _286
REMARK  117  A    between atoms: _288  and  _290
REMARK  118  A    between atoms: _290  and  _291
REMARK  119  A    between atoms: _290  and  _293
REMARK  120  A    between atoms: _293  and  _294
REMARK  121  A    between atoms: _294  and  _295
REMARK  122  A    between atoms: _295  and  _296
REMARK  123  A    between atoms: _305  and  _307
REMARK  124  A    between atoms: _307  and  _308
REMARK  125  A    between atoms: _307  and  _310
REMARK  126  A    between atoms: _310  and  _311
REMARK  127  A    between atoms: _316  and  _318
REMARK  128  A    between atoms: _318  and  _319
REMARK  129  A    between atoms: _318  and  _321
REMARK  130  A    between atoms: _321  and  _322
REMARK  131  A    between atoms: _322  and  _323
REMARK  132  A    between atoms: _323  and  _324
REMARK  133  A    between atoms: _334  and  _335
REMARK  134  A    between atoms: _340  and  _342
REMARK  135  A    between atoms: _342  and  _343
REMARK  136  A    between atoms: _342  and  _345
REMARK  137  A    between atoms: _345  and  _346
REMARK  138  A    between atoms: _349  and  _351
REMARK  139  A    between atoms: _351  and  _352
REMARK  140  A    between atoms: _351  and  _354
REMARK  141  A    between atoms: _354  and  _355
REMARK  142  A    between atoms: _358  and  _360
REMARK  143  A    between atoms: _360  and  _361
REMARK  144  A    between atoms: _360  and  _363
REMARK  145  A    between atoms: _363  and  _364
REMARK  146  A    between atoms: _367  and  _369
REMARK  147  A    between atoms: _369  and  _370
REMARK  148  A    between atoms: _369  and  _372
REMARK  149  A    between atoms: _372  and  _373
REMARK  150  A    between atoms: _376  and  _378
REMARK  151  A    between atoms: _378  and  _379
REMARK  152  A    between atoms: _378  and  _381
REMARK  153  A    between atoms: _381  and  _382
REMARK  154  A    between atoms: _385  and  _387
REMARK  155  A    between atoms: _387  and  _388
REMARK  156  A    between atoms: _390  and  _392
REMARK  157  A    between atoms: _392  and  _393
REMARK  158  A    between atoms: _396  and  _398
REMARK  159  A    between atoms: _398  and  _399
REMARK  160  A    between atoms: _398  and  _401
REMARK  161  A    between atoms: _401  and  _402
REMARK  162  A    between atoms: _405  and  _407
REMARK  163  A    between atoms: _407  and  _408
REMARK  164  A    between atoms: _407  and  _410
REMARK  165  A    between atoms: _410  and  _411
REMARK  166  A    between atoms: _414  and  _416
REMARK  167  A    between atoms: _416  and  _417
REMARK  168  A    between atoms: _416  and  _419
REMARK  169  A    between atoms: _419  and  _420
REMARK  170  A    between atoms: _423  and  _425
REMARK  171  A    between atoms: _425  and  _426
REMARK  172  A    between atoms: _425  and  _428
REMARK  173  A    between atoms: _431  and  _433
REMARK  174  A    between atoms: _433  and  _434
REMARK  175  A    between atoms: _433  and  _436
REMARK  176  A    between atoms: _436  and  _437
REMARK  177  A    between atoms: _440  and  _442
REMARK  178  A    between atoms: _442  and  _443
REMARK  179  A    between atoms: _442  and  _445
REMARK  180  A    between atoms: _445  and  _446
REMARK  181  A    between atoms: _446  and  _447
REMARK  182  A    between atoms: _447  and  _448
REMARK  183  A    between atoms: _448  and  _449
REMARK  184  A    between atoms: _453  and  _455
REMARK  185  A    between atoms: _455  and  _456
REMARK  186  A    between atoms: _455  and  _458
REMARK  187  A    between atoms: _458  and  _459
REMARK  188  A    between atoms: _459  and  _460
REMARK  189  A    between atoms: _462  and  _464
REMARK  190  A    between atoms: _464  and  _465
REMARK  191  A    between atoms: _464  and  _467
REMARK  192  A    between atoms: _467  and  _468
REMARK  193  A    between atoms: _471  and  _473
REMARK  194  A    between atoms: _473  and  _474
REMARK  195  A    between atoms: _476  and  _478
REMARK  196  A    between atoms: _478  and  _479
REMARK  197  A    between atoms: _481  and  _483
REMARK  198  A    between atoms: _483  and  _484
REMARK  199  A    between atoms: _483  and  _486
REMARK  200  A    between atoms: _486  and  _487
REMARK  201  A    between atoms: _490  and  _492
REMARK  202  A    between atoms: _492  and  _493
REMARK  203  A    between atoms: _495  and  _497
REMARK  204  A    between atoms: _497  and  _498
REMARK  205  A    between atoms: _500  and  _502
REMARK  206  A    between atoms: _502  and  _503
REMARK  207  A    between atoms: _502  and  _505
REMARK  208  A    between atoms: _505  and  _506
REMARK  209  A    between atoms: _512  and  _514
REMARK  210  A    between atoms: _514  and  _515
REMARK  211  A    between atoms: _514  and  _517
REMARK  212  A    between atoms: _517  and  _518
REMARK  213  A    between atoms: _521  and  _523
REMARK  214  A    between atoms: _523  and  _524
REMARK  215  A    between atoms: _523  and  _526
REMARK  216  A    between atoms: _529  and  _531
REMARK  217  A    between atoms: _531  and  _532
REMARK  218  A    between atoms: _531  and  _534
REMARK  219  A    between atoms: _534  and  _535
REMARK  220  A    between atoms: _539  and  _540
REMARK  221  A    between atoms: _545  and  _547
REMARK  222  A    between atoms: _547  and  _548
REMARK  223  A    between atoms: _547  and  _550
REMARK  224  A    between atoms: _550  and  _551
REMARK  225  A    between atoms: _555  and  _556
REMARK  226  A    between atoms: _561  and  _563
REMARK  227  A    between atoms: _563  and  _564
REMARK  228  A    between atoms: _563  and  _566
REMARK  229  A    between atoms: _569  and  _571
REMARK  230  A    between atoms: _571  and  _572
REMARK  231  A    between atoms: _571  and  _574
REMARK  232  A    between atoms: _574  and  _575
REMARK  233  A    between atoms: _580  and  _582
REMARK  234  A    between atoms: _582  and  _583
REMARK  235  A    between atoms: _582  and  _585
REMARK  236  A    between atoms: _585  and  _586
REMARK  237  A    between atoms: _589  and  _591
REMARK  238  A    between atoms: _591  and  _592
REMARK  239  A    between atoms: _591  and  _594
REMARK  240  A    between atoms: _594  and  _595
REMARK  241  A    between atoms: _598  and  _600
REMARK  242  A    between atoms: _600  and  _601
REMARK  243  A    between atoms: _603  and  _605
REMARK  244  A    between atoms: _605  and  _606
REMARK  245  A    between atoms: _605  and  _608
REMARK  246  A    between atoms: _608  and  _609
REMARK  247  A    between atoms: _609  and  _610
REMARK  248  A    between atoms: _610  and  _611
REMARK  249  A    between atoms: _620  and  _622
REMARK  250  A    between atoms: _622  and  _623
REMARK  251  A    between atoms: _622  and  _625
REMARK  252  A    between atoms: _625  and  _626
REMARK                            x       y       z     vdW  Elec       q    Type
REMARK                         _______ _______ _______ _____ _____    ______ ____
ROOT
ATOM      1  CA  VAL A   1       4.908  26.177  17.928  0.00  0.00    +0.133 C 
ENDROOT
BRANCH   1   2
ATOM      2  CB  VAL A   1       5.825  26.824  16.856  0.00  0.00    +0.023 C 
ATOM      3  CG2 VAL A   1       6.641  25.758  16.135  0.00  0.00    +0.002 C 
ATOM      4  CG1 VAL A   1       4.975  27.606  15.857  0.00  0.00    +0.002 C 
ENDBRANCH   1   2
BRANCH   1   5
ATOM      5  N   VAL A   1       3.948  25.261  17.326  0.00  0.00    -0.239 NA
ATOM      6  H   VAL A   1       3.184  25.643  16.733  0.00  0.00    +0.142 HD
ENDBRANCH   1   5
BRANCH   1   7
ATOM      7  C   VAL A   1       4.186  27.306  18.639  0.00  0.00    +0.224 C 
ATOM      8  O   VAL A   1       2.987  27.499  18.452  0.00  0.00    -0.287 OA
ENDBRANCH   1   7
TORSDOF 3
REMARK  Name = ../refined-set-2016/1w5y/1w5y_pocket.pdb
REMARK  252 active torsions:
REMARK  status: ('A' for Active; 'I' for Inactive)
REMARK    1  A    between atoms: _1  and  _3
REMARK    2  A    between atoms: _3  and  _4
REMARK    3  A    between atoms: _3  and  _6
REMARK    4  A    between atoms: _6  and  _7
REMARK    5  A    between atoms: _7  and  _8
REMARK    6  A    between atoms: _8  and  _9
REMARK    7  A    between atoms: _19  and  _20
REMARK    8  A    between atoms: _25  and  _27
REMARK    9  A    between atoms: _27  and  _28
REMARK   10  A    between atoms: _27  and  _30
REMARK   11  A    between atoms: _30  and  _31
REMARK   12  A    between atoms: _34  and  _36
REMARK   13  A    between atoms: _36  and  _37
REMARK   14  A    between atoms: _36  and  _39
REMARK   15  A    between atoms: _39  and  _40
REMARK   16  A    between atoms: _43  and  _45
REMARK   17  A    between atoms: _45  and  _46
REMARK   18  A    between atoms: _45  and  _48
REMARK   19  A    between atoms: _48  and  _49
REMARK   20  A    between atoms: _52  and  _54
REMARK   21  A    between atoms: _54  and  _55
REMARK   22  A    between atoms: _54  and  _57
REMARK   23  A    between atoms: _57  and  _58
REMARK   24  A    between atoms: _61  and  _63
REMARK   25  A    between atoms: _63  and  _64
REMARK   26  A    between atoms: _63  and  _66
REMARK   27  A    between atoms: _66  and  _67
REMARK   28  A    between atoms: _70  and  _72
REMARK   29  A    between atoms: _72  and  _73
REMARK   30  A    between atoms: _75  and  _77
REMARK   31  A    between atoms: _77  and  _78
REMARK   32  A    between atoms: _81  and  _83
REMARK   33  A    between atoms: _83  and  _84
REMARK   34  A    between atoms: _83  and  _86
REMARK   35  A    between atoms: _86  and  _87
REMARK   36  A    between atoms: _90  and  _92
REMARK   37  A    between atoms: _92  and  _93
REMARK   38  A    between atoms: _92  and  _95
REMARK   39  A    between atoms: _95  and  _96
REMARK   40  A    between atoms: _99  and  _101
REMARK   41  A    between atoms: _101  and  _102
REMARK   42  A    between atoms: _101  and  _104
REMARK   43  A    between atoms: _104  and  _105
REMARK   44  A    between atoms: _108  and  _110
REMARK   45  A    between atoms: _110  and  _111
REMARK   46  A    between atoms: _110  and  _113
REMARK   47  A    between atoms: _116  and  _118
REMARK   48  A    between atoms: _118  and  _119
REMARK   49  A    between atoms: _118  and  _121
REMARK   50  A    between atoms: _121  and  _122
REMARK   51  A    between atoms: _125  and  _127
REMARK   52  A    between atoms: _127  and  _128
REMARK   53  A    between atoms: _127  and  _130
REMARK   54  A    between atoms: _130  and  _131
REMARK   55  A    between atoms: _131  and  _132
REMARK   56  A    between atoms: _132  and  _133
REMARK   57  A    between atoms: _133  and  _134
REMARK   58  A    between atoms: _138  and  _140
REMARK   59  A    between atoms: _140  and  _141
REMARK   60  A    between atoms: _140  and  _143
REMARK   61  A    between atoms: _143  and  _144
REMARK   62  A    between atoms: _144  and  _145
REMARK   63  A    between atoms: _147  and  _149
REMARK   64  A    between atoms: _149  and  _150
REMARK   65  A    between atoms: _149  and  _152
REMARK   66  A    between atoms: _152  and  _153
REMARK   67  A    between atoms: _156  and  _158
REMARK   68  A    between atoms: _158  and  _159
REMARK   69  A    between atoms: _161  and  _163
REMARK   70  A    between atoms: _163  and  _164
REMARK   71  A    between atoms: _166  and  _168
REMARK   72  A    between atoms: _168  and  _169
REMARK   73  A    between atoms: _168  and  _171
REMARK   74  A    between atoms: _171  and  _172
REMARK   75  A    between atoms: _175  and  _177
REMARK   76  A    between atoms: _177  and  _178
REMARK   77  A    between atoms: _180  and  _182
REMARK   78  A    between atoms: _182  and  _183
REMARK   79  A    between atoms: _185  and  _187
REMARK   80  A    between atoms: _187  and  _188
REMARK   81  A    between atoms: _187  and  _190
REMARK   82  A    between atoms: _190  and  _191
REMARK   83  A    between atoms: _197  and  _199
REMARK   84  A    between atoms: _199  and  _200
REMARK   85  A    between atoms: _199  and  _202
REMARK   86  A    between atoms: _202  and  _203
REMARK   87  A    between atoms: _206  and  _208
REMARK   88  A    between atoms: _208  and  _209
REMARK   89  A    between atoms: _208  and  _211
REMARK   90  A    between atoms: _214  and  _216
REMARK   91  A    between atoms: _216  and  _217
REMARK   92  A    between atoms: _216  and  _219
REMARK   93  A    between atoms: _219  and  _220
REMARK   94  A    between atoms: _224  and  _225
REMARK   95  A    between atoms: _230  and  _232
REMARK   96  A    between atoms: _232  and  _233
REMARK   97  A    between atoms: _232  and  _235
REMARK   98  A    between atoms: _235  and  _236
REMARK   99  A    between atoms: _240  and  _241
REMARK  100  A    between atoms: _246  and  _248
REMARK  101  A    between atoms: _248  and  _249
REMARK  102  A    between atoms: _248  and  _251
REMARK  103  A    between atoms: _254  and  _256
REMARK  104  A    between atoms: _256  and  _257
REMARK  105  A    between atoms: _256  and  _259
REMARK  106  A    between atoms: _259  and  _260
REMARK  107  A    between atoms: _265  and  _267
REMARK  108  A    between atoms: _267  and  _268
REMARK  109  A    between atoms: _267  and  _270
REMARK  110  A    between atoms: _270  and  _271
REMARK  111  A    between atoms: _274  and  _276
REMARK  112  A    between atoms: _276  and  _277
REMARK  113  A    between atoms: _276  and  _279
REMARK  114  A    between atoms: _279  and  _280
REMARK  115  A    between atoms: _283  and  _285
REMARK  116  A    between atoms: _285  and  _286
REMARK  117  A    between atoms: _288  and  _290
REMARK  118  A    between atoms: _290  and  _291
REMARK  119  A    between atoms: _290  and  _293
REMARK  120  A    between atoms: _293  and  _294
REMARK  121  A    between atoms: _294  and  _295
REMARK  122  A    between atoms: _295  and  _296
REMARK  123  A    between atoms: _305  and  _307
REMARK  124  A    between atoms: _307  and  _308
REMARK  125  A    between atoms: _307  and  _310
REMARK  126  A    between atoms: _310  and  _311
REMARK  127  A    between atoms: _316  and  _318
REMARK  128  A    between atoms: _318  and  _319
REMARK  129  A    between atoms: _318  and  _321
REMARK  130  A    between atoms: _321  and  _322
REMARK  131  A    between atoms: _322  and  _323
REMARK  132  A    between atoms: _323  and  _324
REMARK  133  A    between atoms: _334  and  _335
REMARK  134  A    between atoms: _340  and  _342
REMARK  135  A    between atoms: _342  and  _343
REMARK  136  A    between atoms: _342  and  _345
REMARK  137  A    between atoms: _345  and  _346
REMARK  138  A    between atoms: _349  and  _351
REMARK  139  A    between atoms: _351  and  _352
REMARK  140  A    between atoms: _351  and  _354
REMARK  141  A    between atoms: _354  and  _355
REMARK  142  A    between atoms: _358  and  _360
REMARK  143  A    between atoms: _360  and  _361
REMARK  144  A    between atoms: _360  and  _363
REMARK  145  A    between atoms: _363  and  _364
REMARK  146  A    between atoms: _367  and  _369
REMARK  147  A    between atoms: _369  and  _370
REMARK  148  A    between atoms: _369  and  _372
REMARK  149  A    between atoms: _372  and  _373
REMARK  150  A    between atoms: _376  and  _378
REMARK  151  A    between atoms: _378  and  _379
REMARK  152  A    between atoms: _378  and  _381
REMARK  153  A    between atoms: _381  and  _382
REMARK  154  A    between atoms: _385  and  _387
REMARK  155  A    between atoms: _387  and  _388
REMARK  156  A    between atoms: _390  and  _392
REMARK  157  A    between atoms: _392  and  _393
REMARK  158  A    between atoms: _396  and  _398
REMARK  159  A    between atoms: _398  and  _399
REMARK  160  A    between atoms: _398  and  _401
REMARK  161  A    between atoms: _401  and  _402
REMARK  162  A    between atoms: _405  and  _407
REMARK  163  A    between atoms: _407  and  _408
REMARK  164  A    between atoms: _407  and  _410
REMARK  165  A    between atoms: _410  and  _411
REMARK  166  A    between atoms: _414  and  _416
REMARK  167  A    between atoms: _416  and  _417
REMARK  168  A    between atoms: _416  and  _419
REMARK  169  A    between atoms: _419  and  _420
REMARK  170  A    between atoms: _423  and  _425
REMARK  171  A    between atoms: _425  and  _426
REMARK  172  A    between atoms: _425  and  _428
REMARK  173  A    between atoms: _431  and  _433
REMARK  174  A    between atoms: _433  and  _434
REMARK  175  A    between atoms: _433  and  _436
REMARK  176  A    between atoms: _436  and  _437
REMARK  177  A    between atoms: _440  and  _442
REMARK  178  A    between atoms: _442  and  _443
REMARK  179  A    between atoms: _442  and  _445
REMARK  180  A    between atoms: _445  and  _446
REMARK  181  A    between atoms: _446  and  _447
REMARK  182  A    between atoms: _447  and  _448
REMARK  183  A    between atoms: _448  and  _449
REMARK  184  A    between atoms: _453  and  _455
REMARK  185  A    between atoms: _455  and  _456
REMARK  186  A    between atoms: _455  and  _458
REMARK  187  A    between atoms: _458  and  _459
REMARK  188  A    between atoms: _459  and  _460
REMARK  189  A    between atoms: _462  and  _464
REMARK  190  A    between atoms: _464  and  _465
REMARK  191  A    between atoms: _464  and  _467
REMARK  192  A    between atoms: _467  and  _468
REMARK  193  A    between atoms: _471  and  _473
REMARK  194  A    between atoms: _473  and  _474
REMARK  195  A    between atoms: _476  and  _478
REMARK  196  A    between atoms: _478  and  _479
REMARK  197  A    between atoms: _481  and  _483
REMARK  198  A    between atoms: _483  and  _484
REMARK  199  A    between atoms: _483  and  _486
REMARK  200  A    between atoms: _486  and  _487
REMARK  201  A    between atoms: _490  and  _492
REMARK  202  A    between atoms: _492  and  _493
REMARK  203  A    between atoms: _495  and  _497
REMARK  204  A    between atoms: _497  and  _498
REMARK  205  A    between atoms: _500  and  _502
REMARK  206  A    between atoms: _502  and  _503
REMARK  207  A    between atoms: _502  and  _505
REMARK  208  A    between atoms: _505  and  _506
REMARK  209  A    between atoms: _512  and  _514
REMARK  210  A    between atoms: _514  and  _515
REMARK  211  A    between atoms: _514  and  _517
REMARK  212  A    between atoms: _517  and  _518
REMARK  213  A    between atoms: _521  and  _523
REMARK  214  A    between atoms: _523  and  _524
REMARK  215  A    between atoms: _523  and  _526
REMARK  216  A    between atoms: _529  and  _531
REMARK  217  A    between atoms: _531  and  _532
REMARK  218  A    between atoms: _531  and  _534
REMARK  219  A    between atoms: _534  and  _535
REMARK  220  A    between atoms: _539  and  _540
REMARK  221  A    between atoms: _545  and  _547
REMARK  222  A    between atoms: _547  and  _548
REMARK  223  A    between atoms: _547  and  _550
REMARK  224  A    between atoms: _550  and  _551
REMARK  225  A    between atoms: _555  and  _556
REMARK  226  A    between atoms: _561  and  _563
REMARK  227  A    between atoms: _563  and  _564
REMARK  228  A    between atoms: _563  and  _566
REMARK  229  A    between atoms: _569  and  _571
REMARK  230  A    between atoms: _571  and  _572
REMARK  231  A    between atoms: _571  and  _574
REMARK  232  A    between atoms: _574  and  _575
REMARK  233  A    between atoms: _580  and  _582
REMARK  234  A    between atoms: _582  and  _583
REMARK  235  A    between atoms: _582  and  _585
REMARK  236  A    between atoms: _585  and  _586
REMARK  237  A    between atoms: _589  and  _591
REMARK  238  A    between atoms: _591  and  _592
REMARK  239  A    between atoms: _591  and  _594
REMARK  240  A    between atoms: _594  and  _595
REMARK  241  A    between atoms: _598  and  _600
REMARK  242  A    between atoms: _600  and  _601
REMARK  243  A    between atoms: _603  and  _605
REMARK  244  A    between atoms: _605  and  _606
REMARK  245  A    between atoms: _605  and  _608
REMARK  246  A    between atoms: _608  and  _609
REMARK  247  A    between atoms: _609  and  _610
REMARK  248  A    between atoms: _610  and  _611
REMARK  249  A    between atoms: _620  and  _622
REMARK  250  A    between atoms: _622  and  _623
REMARK  251  A    between atoms: _622  and  _625
REMARK  252  A    between atoms: _625  and  _626
REMARK                            x       y       z     vdW  Elec       q    Type
REMARK                         _______ _______ _______ _____ _____    ______ ____
ROOT
ATOM      1  CA  LEU A   1       8.405  30.958  16.860  0.00  0.00    +0.133 C 
ENDROOT
BRANCH   1   2
ATOM      2  N   LEU A   1       9.181  32.134  16.489  0.00  0.00    -0.239 NA
ATOM      3  H   LEU A   1       9.899  32.051  15.741  0.00  0.00    +0.142 HD
ENDBRANCH   1   2
BRANCH   1   4
ATOM      4  C   LEU A   1       9.292  30.068  17.721  0.00  0.00    +0.224 C 
ATOM      5  O   LEU A   1      10.506  30.000  17.509  0.00  0.00    -0.287 OA
ENDBRANCH   1   4
BRANCH   1   6
ATOM      6  CB  LEU A   1       7.960  30.190  15.609  0.00  0.00    +0.025 C 
BRANCH   6   7
ATOM      7  CG  LEU A   1       7.243  31.017  14.530  0.00  0.00    +0.002 C 
ATOM      8  CD2 LEU A   1       5.972  31.630  15.103  0.00  0.00    +0.000 C 
ATOM      9  CD1 LEU A   1       6.921  30.122  13.335  0.00  0.00    +0.000 C 
ENDBRANCH   6   7
ENDBRANCH   1   6
TORSDOF 4
REMARK  Name = ../refined-set-2016/1w5y/1w5y_pocket.pdb
REMARK  252 active torsions:
REMARK  status: ('A' for Active; 'I' for Inactive)
REMARK    1  A    between atoms: _1  and  _3
REMARK    2  A    between atoms: _3  and  _4
REMARK    3  A    between atoms: _3  and  _6
REMARK    4  A    between atoms: _6  and  _7
REMARK    5  A    between atoms: _7  and  _8
REMARK    6  A    between atoms: _8  and  _9
REMARK    7  A    between atoms: _19  and  _20
REMARK    8  A    between atoms: _25  and  _27
REMARK    9  A    between atoms: _27  and  _28
REMARK   10  A    between atoms: _27  and  _30
REMARK   11  A    between atoms: _30  and  _31
REMARK   12  A    between atoms: _34  and  _36
REMARK   13  A    between atoms: _36  and  _37
REMARK   14  A    between atoms: _36  and  _39
REMARK   15  A    between atoms: _39  and  _40
REMARK   16  A    between atoms: _43  and  _45
REMARK   17  A    between atoms: _45  and  _46
REMARK   18  A    between atoms: _45  and  _48
REMARK   19  A    between atoms: _48  and  _49
REMARK   20  A    between atoms: _52  and  _54
REMARK   21  A    between atoms: _54  and  _55
REMARK   22  A    between atoms: _54  and  _57
REMARK   23  A    between atoms: _57  and  _58
REMARK   24  A    between atoms: _61  and  _63
REMARK   25  A    between atoms: _63  and  _64
REMARK   26  A    between atoms: _63  and  _66
REMARK   27  A    between atoms: _66  and  _67
REMARK   28  A    between atoms: _70  and  _72
REMARK   29  A    between atoms: _72  and  _73
REMARK   30  A    between atoms: _75  and  _77
REMARK   31  A    between atoms: _77  and  _78
REMARK   32  A    between atoms: _81  and  _83
REMARK   33  A    between atoms: _83  and  _84
REMARK   34  A    between atoms: _83  and  _86
REMARK   35  A    between atoms: _86  and  _87
REMARK   36  A    between atoms: _90  and  _92
REMARK   37  A    between atoms: _92  and  _93
REMARK   38  A    between atoms: _92  and  _95
REMARK   39  A    between atoms: _95  and  _96
REMARK   40  A    between atoms: _99  and  _101
REMARK   41  A    between atoms: _101  and  _102
REMARK   42  A    between atoms: _101  and  _104
REMARK   43  A    between atoms: _104  and  _105
REMARK   44  A    between atoms: _108  and  _110
REMARK   45  A    between atoms: _110  and  _111
REMARK   46  A    between atoms: _110  and  _113
REMARK   47  A    between atoms: _116  and  _118
REMARK   48  A    between atoms: _118  and  _119
REMARK   49  A    between atoms: _118  and  _121
REMARK   50  A    between atoms: _121  and  _122
REMARK   51  A    between atoms: _125  and  _127
REMARK   52  A    between atoms: _127  and  _128
REMARK   53  A    between atoms: _127  and  _130
REMARK   54  A    between atoms: _130  and  _131
REMARK   55  A    between atoms: _131  and  _132
REMARK   56  A    between atoms: _132  and  _133
REMARK   57  A    between atoms: _133  and  _134
REMARK   58  A    between atoms: _138  and  _140
REMARK   59  A    between atoms: _140  and  _141
REMARK   60  A    between atoms: _140  and  _143
REMARK   61  A    between atoms: _143  and  _144
REMARK   62  A    between atoms: _144  and  _145
REMARK   63  A    between atoms: _147  and  _149
REMARK   64  A    between atoms: _149  and  _150
REMARK   65  A    between atoms: _149  and  _152
REMARK   66  A    between atoms: _152  and  _153
REMARK   67  A    between atoms: _156  and  _158
REMARK   68  A    between atoms: _158  and  _159
REMARK   69  A    between atoms: _161  and  _163
REMARK   70  A    between atoms: _163  and  _164
REMARK   71  A    between atoms: _166  and  _168
REMARK   72  A    between atoms: _168  and  _169
REMARK   73  A    between atoms: _168  and  _171
REMARK   74  A    between atoms: _171  and  _172
REMARK   75  A    between atoms: _175  and  _177
REMARK   76  A    between atoms: _177  and  _178
REMARK   77  A    between atoms: _180  and  _182
REMARK   78  A    between atoms: _182  and  _183
REMARK   79  A    between atoms: _185  and  _187
REMARK   80  A    between atoms: _187  and  _188
REMARK   81  A    between atoms: _187  and  _190
REMARK   82  A    between atoms: _190  and  _191
REMARK   83  A    between atoms: _197  and  _199
REMARK   84  A    between atoms: _199  and  _200
REMARK   85  A    between atoms: _199  and  _202
REMARK   86  A    between atoms: _202  and  _203
REMARK   87  A    between atoms: _206  and  _208
REMARK   88  A    between atoms: _208  and  _209
REMARK   89  A    between atoms: _208  and  _211
REMARK   90  A    between atoms: _214  and  _216
REMARK   91  A    between atoms: _216  and  _217
REMARK   92  A    between atoms: _216  and  _219
REMARK   93  A    between atoms: _219  and  _220
REMARK   94  A    between atoms: _224  and  _225
REMARK   95  A    between atoms: _230  and  _232
REMARK   96  A    between atoms: _232  and  _233
REMARK   97  A    between atoms: _232  and  _235
REMARK   98  A    between atoms: _235  and  _236
REMARK   99  A    between atoms: _240  and  _241
REMARK  100  A    between atoms: _246  and  _248
REMARK  101  A    between atoms: _248  and  _249
REMARK  102  A    between atoms: _248  and  _251
REMARK  103  A    between atoms: _254  and  _256
REMARK  104  A    between atoms: _256  and  _257
REMARK  105  A    between atoms: _256  and  _259
REMARK  106  A    between atoms: _259  and  _260
REMARK  107  A    between atoms: _265  and  _267
REMARK  108  A    between atoms: _267  and  _268
REMARK  109  A    between atoms: _267  and  _270
REMARK  110  A    between atoms: _270  and  _271
REMARK  111  A    between atoms: _274  and  _276
REMARK  112  A    between atoms: _276  and  _277
REMARK  113  A    between atoms: _276  and  _279
REMARK  114  A    between atoms: _279  and  _280
REMARK  115  A    between atoms: _283  and  _285
REMARK  116  A    between atoms: _285  and  _286
REMARK  117  A    between atoms: _288  and  _290
REMARK  118  A    between atoms: _290  and  _291
REMARK  119  A    between atoms: _290  and  _293
REMARK  120  A    between atoms: _293  and  _294
REMARK  121  A    between atoms: _294  and  _295
REMARK  122  A    between atoms: _295  and  _296
REMARK  123  A    between atoms: _305  and  _307
REMARK  124  A    between atoms: _307  and  _308
REMARK  125  A    between atoms: _307  and  _310
REMARK  126  A    between atoms: _310  and  _311
REMARK  127  A    between atoms: _316  and  _318
REMARK  128  A    between atoms: _318  and  _319
REMARK  129  A    between atoms: _318  and  _321
REMARK  130  A    between atoms: _321  and  _322
REMARK  131  A    between atoms: _322  and  _323
REMARK  132  A    between atoms: _323  and  _324
REMARK  133  A    between atoms: _334  and  _335
REMARK  134  A    between atoms: _340  and  _342
REMARK  135  A    between atoms: _342  and  _343
REMARK  136  A    between atoms: _342  and  _345
REMARK  137  A    between atoms: _345  and  _346
REMARK  138  A    between atoms: _349  and  _351
REMARK  139  A    between atoms: _351  and  _352
REMARK  140  A    between atoms: _351  and  _354
REMARK  141  A    between atoms: _354  and  _355
REMARK  142  A    between atoms: _358  and  _360
REMARK  143  A    between atoms: _360  and  _361
REMARK  144  A    between atoms: _360  and  _363
REMARK  145  A    between atoms: _363  and  _364
REMARK  146  A    between atoms: _367  and  _369
REMARK  147  A    between atoms: _369  and  _370
REMARK  148  A    between atoms: _369  and  _372
REMARK  149  A    between atoms: _372  and  _373
REMARK  150  A    between atoms: _376  and  _378
REMARK  151  A    between atoms: _378  and  _379
REMARK  152  A    between atoms: _378  and  _381
REMARK  153  A    between atoms: _381  and  _382
REMARK  154  A    between atoms: _385  and  _387
REMARK  155  A    between atoms: _387  and  _388
REMARK  156  A    between atoms: _390  and  _392
REMARK  157  A    between atoms: _392  and  _393
REMARK  158  A    between atoms: _396  and  _398
REMARK  159  A    between atoms: _398  and  _399
REMARK  160  A    between atoms: _398  and  _401
REMARK  161  A    between atoms: _401  and  _402
REMARK  162  A    between atoms: _405  and  _407
REMARK  163  A    between atoms: _407  and  _408
REMARK  164  A    between atoms: _407  and  _410
REMARK  165  A    between atoms: _410  and  _411
REMARK  166  A    between atoms: _414  and  _416
REMARK  167  A    between atoms: _416  and  _417
REMARK  168  A    between atoms: _416  and  _419
REMARK  169  A    between atoms: _419  and  _420
REMARK  170  A    between atoms: _423  and  _425
REMARK  171  A    between atoms: _425  and  _426
REMARK  172  A    between atoms: _425  and  _428
REMARK  173  A    between atoms: _431  and  _433
REMARK  174  A    between atoms: _433  and  _434
REMARK  175  A    between atoms: _433  and  _436
REMARK  176  A    between atoms: _436  and  _437
REMARK  177  A    between atoms: _440  and  _442
REMARK  178  A    between atoms: _442  and  _443
REMARK  179  A    between atoms: _442  and  _445
REMARK  180  A    between atoms: _445  and  _446
REMARK  181  A    between atoms: _446  and  _447
REMARK  182  A    between atoms: _447  and  _448
REMARK  183  A    between atoms: _448  and  _449
REMARK  184  A    between atoms: _453  and  _455
REMARK  185  A    between atoms: _455  and  _456
REMARK  186  A    between atoms: _455  and  _458
REMARK  187  A    between atoms: _458  and  _459
REMARK  188  A    between atoms: _459  and  _460
REMARK  189  A    between atoms: _462  and  _464
REMARK  190  A    between atoms: _464  and  _465
REMARK  191  A    between atoms: _464  and  _467
REMARK  192  A    between atoms: _467  and  _468
REMARK  193  A    between atoms: _471  and  _473
REMARK  194  A    between atoms: _473  and  _474
REMARK  195  A    between atoms: _476  and  _478
REMARK  196  A    between atoms: _478  and  _479
REMARK  197  A    between atoms: _481  and  _483
REMARK  198  A    between atoms: _483  and  _484
REMARK  199  A    between atoms: _483  and  _486
REMARK  200  A    between atoms: _486  and  _487
REMARK  201  A    between atoms: _490  and  _492
REMARK  202  A    between atoms: _492  and  _493
REMARK  203  A    between atoms: _495  and  _497
REMARK  204  A    between atoms: _497  and  _498
REMARK  205  A    between atoms: _500  and  _502
REMARK  206  A    between atoms: _502  and  _503
REMARK  207  A    between atoms: _502  and  _505
REMARK  208  A    between atoms: _505  and  _506
REMARK  209  A    between atoms: _512  and  _514
REMARK  210  A    between atoms: _514  and  _515
REMARK  211  A    between atoms: _514  and  _517
REMARK  212  A    between atoms: _517  and  _518
REMARK  213  A    between atoms: _521  and  _523
REMARK  214  A    between atoms: _523  and  _524
REMARK  215  A    between atoms: _523  and  _526
REMARK  216  A    between atoms: _529  and  _531
REMARK  217  A    between atoms: _531  and  _532
REMARK  218  A    between atoms: _531  and  _534
REMARK  219  A    between atoms: _534  and  _535
REMARK  220  A    between atoms: _539  and  _540
REMARK  221  A    between atoms: _545  and  _547
REMARK  222  A    between atoms: _547  and  _548
REMARK  223  A    between atoms: _547  and  _550
REMARK  224  A    between atoms: _550  and  _551
REMARK  225  A    between atoms: _555  and  _556
REMARK  226  A    between atoms: _561  and  _563
REMARK  227  A    between atoms: _563  and  _564
REMARK  228  A    between atoms: _563  and  _566
REMARK  229  A    between atoms: _569  and  _571
REMARK  230  A    between atoms: _571  and  _572
REMARK  231  A    between atoms: _571  and  _574
REMARK  232  A    between atoms: _574  and  _575
REMARK  233  A    between atoms: _580  and  _582
REMARK  234  A    between atoms: _582  and  _583
REMARK  235  A    between atoms: _582  and  _585
REMARK  236  A    between atoms: _585  and  _586
REMARK  237  A    between atoms: _589  and  _591
REMARK  238  A    between atoms: _591  and  _592
REMARK  239  A    between atoms: _591  and  _594
REMARK  240  A    between atoms: _594  and  _595
REMARK  241  A    between atoms: _598  and  _600
REMARK  242  A    between atoms: _600  and  _601
REMARK  243  A    between atoms: _603  and  _605
REMARK  244  A    between atoms: _605  and  _606
REMARK  245  A    between atoms: _605  and  _608
REMARK  246  A    between atoms: _608  and  _609
REMARK  247  A    between atoms: _609  and  _610
REMARK  248  A    between atoms: _610  and  _611
REMARK  249  A    between atoms: _620  and  _622
REMARK  250  A    between atoms: _622  and  _623
REMARK  251  A    between atoms: _622  and  _625
REMARK  252  A    between atoms: _625  and  _626
REMARK                            x       y       z     vdW  Elec       q    Type
REMARK                         _______ _______ _______ _____ _____    ______ ____
ROOT
ATOM      1  CA  ILE A   6      16.306  28.568  12.134  0.00  0.00    +0.149 C 
ENDROOT
BRANCH   1   2
ATOM      2  C   ILE A   6      16.018  30.065  12.038  0.00  0.00    +0.241 C 
ATOM      3  O   ILE A   6      15.072  30.565  12.647  0.00  0.00    -0.273 OA
ATOM      4  N   ILE A   7      16.839  30.774  11.271  0.00  0.00    -0.297 N 
ATOM      5  H   ILE A   7      17.650  30.303  10.822  0.00  0.00    +0.150 HD
BRANCH   4   6
ATOM      6  CA  ILE A   7      16.627  32.199  11.045  0.00  0.00    +0.149 C 
BRANCH   6   7
ATOM      7  C   ILE A   7      16.011  32.262   9.649  0.00  0.00    +0.241 C 
ATOM      8  N   GLY A   8      14.730  32.601   9.588  0.00  0.00    -0.295 N 
ATOM      9  H   GLY A   8      14.218  32.833  10.463  0.00  0.00    +0.150 HD
ATOM     10  O   ILE A   7      16.690  32.003   8.651  0.00  0.00    -0.273 OA
BRANCH   8  11
ATOM     11  CA  GLY A   8      14.034  32.652   8.314  0.00  0.00    +0.176 C 
BRANCH  11  12
ATOM     12  C   GLY A   8      13.978  34.007   7.632  0.00  0.00    +0.243 C 
ATOM     13  O   GLY A   8      14.554  34.980   8.106  0.00  0.00    -0.273 OA
ATOM     14  N   ARG A   9      13.256  34.056   6.517  0.00  0.00    -0.297 N 
ATOM     15  H   ARG A   9      12.761  33.197   6.203  0.00  0.00    +0.150 HD
BRANCH  14  16
ATOM     16  CA  ARG A   9      13.133  35.270   5.718  0.00  0.00    +0.149 C 
BRANCH  16  17
ATOM     17  C   ARG A   9      12.636  36.516   6.444  0.00  0.00    +0.241 C 
ATOM     18  N   ASN A  10      11.730  36.353   7.404  0.00  0.00    -0.298 N 
ATOM     19  H   ASN A  10      11.405  35.396   7.650  0.00  0.00    +0.150 HD
ATOM     20  O   ARG A   9      13.074  37.623   6.125  0.00  0.00    -0.273 OA
BRANCH  18  21
ATOM     21  CA  ASN A  10      11.187  37.509   8.117  0.00  0.00    +0.146 C 
BRANCH  21  22
ATOM     22  C   ASN A  10      12.267  38.318   8.831  0.00  0.00    +0.227 C 
ATOM     23  O   ASN A  10      12.093  39.513   9.063  0.00  0.00    -0.286 OA
ENDBRANCH  21  22
BRANCH  21  24
ATOM     24  CB  ASN A  10      10.100  37.079   9.114  0.00  0.00    +0.112 C 
BRANCH  24  25
ATOM     25  CG  ASN A  10      10.666  36.379  10.337  0.00  0.00    +0.222 C 
ATOM     26  ND2 ASN A  10      10.332  36.891  11.522  0.00  0.00    -0.329 N 
ATOM     27 HD21 ASN A  10      10.684  36.452  12.396  0.00  0.00    +0.145 HD
ATOM     28 HD22 ASN A  10       9.719  37.730  11.572  0.00  0.00    +0.145 HD
ATOM     29  OD1 ASN A  10      11.388  35.388  10.221  0.00  0.00    -0.275 OA
ENDBRANCH  24  25
ENDBRANCH  21  24
ENDBRANCH  18  21
ENDBRANCH  16  17
BRANCH  16  30
ATOM     30  CB  ARG A   9      12.237  35.011   4.494  0.00  0.00    +0.033 C 
BRANCH  30  31
ATOM     31  CG  ARG A   9      12.827  34.014   3.492  0.00  0.00    +0.045 C 
BRANCH  31  32
ATOM     32  CD  ARG A   9      12.092  34.025   2.136  0.00  0.00    +0.174 C 
BRANCH  32  33
ATOM     33  NE  ARG A   9      10.690  33.631   2.263  0.00  0.00    -0.265 N 
ATOM     34  HE  ARG A   9      10.479  32.615   2.335  0.00  0.00    +0.259 HD
ATOM     35  CZ  ARG A   9       9.666  34.477   2.293  0.00  0.00    +0.342 C 
ATOM     36  NH2 ARG A   9       8.431  34.014   2.450  0.00  0.00    -0.292 N 
ATOM     37 HH21 ARG A   9       8.268  32.992   2.549  0.00  0.00    +0.255 HD
ATOM     38 HH22 ARG A   9       7.627  34.674   2.474  0.00  0.00    +0.255 HD
ATOM     39  NH1 ARG A   9       9.874  35.785   2.192  0.00  0.00    -0.292 N 
ATOM     40 HH11 ARG A   9       9.069  36.443   2.216  0.00  0.00    +0.255 HD
ATOM     41 HH12 ARG A   9      10.842  36.151   2.089  0.00  0.00    +0.255 HD
ENDBRANCH  32  33
ENDBRANCH  31  32
ENDBRANCH  30  31
ENDBRANCH  16  30
ENDBRANCH  14  16
ENDBRANCH  11  12
ENDBRANCH   8  11
ENDBRANCH   6   7
BRANCH   6  42
ATOM     42  CB  ILE A   7      17.943  33.001  11.035  0.00  0.00    +0.027 C 
ATOM     43  CG2 ILE A   7      17.656  34.447  10.660  0.00  0.00    +0.002 C 
BRANCH  42  44
ATOM     44  CG1 ILE A   7      18.630  32.915  12.401  0.00  0.00    +0.002 C 
ATOM     45  CD1 ILE A   7      17.773  33.374  13.557  0.00  0.00    +0.000 C 
ENDBRANCH  42  44
ENDBRANCH   6  42
ENDBRANCH   4   6
ENDBRANCH   1   2
BRANCH   1  47
ATOM     46  C   ASN A   5      17.565  27.425  13.896  0.00  0.00    +0.241 C 
ATOM     47  N   ILE A   6      16.458  28.037  13.486  0.00  0.00    -0.297 N 
ATOM     48  H   ILE A   6      15.669  28.142  14.155  0.00  0.00    +0.150 HD
ATOM     49  O   ASN A   5      18.572  27.298  13.196  0.00  0.00    -0.273 OA
BRANCH  46  50
ATOM     50  CA  ASN A   5      17.533  26.881  15.320  0.00  0.00    +0.158 C 
BRANCH  50  52
ATOM     51  C   VAL A   4      17.225  24.544  14.765  0.00  0.00    +0.241 C 
ATOM     52  N   ASN A   5      17.997  25.499  15.277  0.00  0.00    -0.297 N 
ATOM     53  H   ASN A   5      18.938  25.258  15.649  0.00  0.00    +0.150 HD
ATOM     54  O   VAL A   4      16.090  24.762  14.341  0.00  0.00    -0.273 OA
BRANCH  51  55
ATOM     55  CA  VAL A   4      17.796  23.126  14.740  0.00  0.00    +0.149 C 
BRANCH  55  58
ATOM     56  C   PRO A   3      16.856  20.961  15.344  0.00  0.00    +0.241 C 
ATOM     57  O   PRO A   3      17.924  20.576  15.814  0.00  0.00    -0.273 OA
ATOM     58  N   VAL A   4      16.700  22.167  14.810  0.00  0.00    -0.297 N 
ATOM     59  H   VAL A   4      15.769  22.435  14.431  0.00  0.00    +0.150 HD
BRANCH  56  63
ATOM     60  C   THR A   2      13.858  21.563  16.116  0.00  0.00    +0.246 C 
ATOM     61  O   THR A   2      14.458  21.778  17.168  0.00  0.00    -0.273 OA
ATOM     62  N   PRO A   3      14.346  20.737  15.177  0.00  0.00    -0.272 N 
ATOM     63  CA  PRO A   3      15.628  20.049  15.356  0.00  0.00    +0.152 C 
ATOM     64  CB  PRO A   3      15.633  19.038  14.210  0.00  0.00    +0.031 C 
ATOM     65  CG  PRO A   3      14.881  19.751  13.140  0.00  0.00    +0.024 C 
ATOM     66  CD  PRO A   3      13.720  20.359  13.898  0.00  0.00    +0.094 C 
BRANCH  60  67
ATOM     67  CA  THR A   2      12.512  22.227  15.840  0.00  0.00    +0.176 C 
BRANCH  67  69
ATOM     68  C   PRO A   1      11.044  21.181  17.448  0.00  0.00    +0.239 C 
ATOM     69  N   THR A   2      11.774  22.233  17.095  0.00  0.00    -0.295 N 
ATOM     70  H   THR A   2      11.819  23.065  17.718  0.00  0.00    +0.150 HD
ATOM     71  O   PRO A   1      10.932  20.183  16.734  0.00  0.00    -0.274 OA
BRANCH  68  76
ATOM     72  N   PRO A   1       9.450  22.403  18.998  0.00  0.00    -0.210 NA
ATOM     73  CD  PRO A   1       8.036  21.984  18.981  0.00  0.00    +0.089 C 
ATOM     74  CG  PRO A   1       8.119  20.570  18.432  0.00  0.00    +0.021 C 
ATOM     75  CB  PRO A   1       9.396  20.071  19.019  0.00  0.00    +0.028 C 
ATOM     76  CA  PRO A   1      10.332  21.252  18.797  0.00  0.00    +0.149 C 
ENDBRANCH  68  76
ENDBRANCH  67  69
BRANCH  67  77
ATOM     77  CB  THR A   2      12.741  23.656  15.303  0.00  0.00    +0.137 C 
ATOM     78  CG2 THR A   2      13.432  24.519  16.349  0.00  0.00    +0.034 C 
BRANCH  77  79
ATOM     79  OG1 THR A   2      13.550  23.597  14.120  0.00  0.00    -0.382 OA
ATOM     80  HG1 THR A   2      14.422  23.182  14.338  0.00  0.00    +0.210 HD
ENDBRANCH  77  79
ENDBRANCH  67  77
ENDBRANCH  60  67
ENDBRANCH  56  63
ENDBRANCH  55  58
BRANCH  55  81
ATOM     81  CB  VAL A   4      18.613  22.938  13.437  0.00  0.00    +0.027 C 
ATOM     82  CG2 VAL A   4      19.800  23.883  13.418  0.00  0.00    +0.002 C 
ATOM     83  CG1 VAL A   4      17.729  23.184  12.237  0.00  0.00    +0.002 C 
ENDBRANCH  55  81
ENDBRANCH  51  55
ENDBRANCH  50  52
BRANCH  50  84
ATOM     84  CB  ASN A   5      18.417  27.728  16.237  0.00  0.00    +0.114 C 
BRANCH  84  85
ATOM     85  CG  ASN A   5      18.203  27.408  17.710  0.00  0.00    +0.222 C 
ATOM     86  ND2 ASN A   5      19.295  27.273  18.450  0.00  0.00    -0.329 N 
ATOM     87 HD21 ASN A   5      19.212  27.066  19.466  0.00  0.00    +0.145 HD
ATOM     88 HD22 ASN A   5      20.234  27.374  18.015  0.00  0.00    +0.145 HD
ATOM     89  OD1 ASN A   5      17.067  27.298  18.175  0.00  0.00    -0.275 OA
ENDBRANCH  84  85
ENDBRANCH  50  84
ENDBRANCH  46  50
ENDBRANCH   1  47
BRANCH   1  90
ATOM     90  CB  ILE A   6      15.153  27.828  11.417  0.00  0.00    +0.027 C 
ATOM     91  CG2 ILE A   6      14.872  28.459  10.053  0.00  0.00    +0.002 C 
BRANCH  90  92
ATOM     92  CG1 ILE A   6      15.491  26.344  11.292  0.00  0.00    +0.002 C 
ATOM     93  CD1 ILE A   6      14.283  25.490  10.983  0.00  0.00    +0.000 C 
ENDBRANCH  90  92
ENDBRANCH   1  90
TORSDOF 33
REMARK  Name = ../refined-set-2016/1w5y/1w5y_pocket.pdb
REMARK  252 active torsions:
REMARK  status: ('A' for Active; 'I' for Inactive)
REMARK    1  A    between atoms: _1  and  _3
REMARK    2  A    between atoms: _3  and  _4
REMARK    3  A    between atoms: _3  and  _6
REMARK    4  A    between atoms: _6  and  _7
REMARK    5  A    between atoms: _7  and  _8
REMARK    6  A    between atoms: _8  and  _9
REMARK    7  A    between atoms: _19  and  _20
REMARK    8  A    between atoms: _25  and  _27
REMARK    9  A    between atoms: _27  and  _28
REMARK   10  A    between atoms: _27  and  _30
REMARK   11  A    between atoms: _30  and  _31
REMARK   12  A    between atoms: _34  and  _36
REMARK   13  A    between atoms: _36  and  _37
REMARK   14  A    between atoms: _36  and  _39
REMARK   15  A    between atoms: _39  and  _40
REMARK   16  A    between atoms: _43  and  _45
REMARK   17  A    between atoms: _45  and  _46
REMARK   18  A    between atoms: _45  and  _48
REMARK   19  A    between atoms: _48  and  _49
REMARK   20  A    between atoms: _52  and  _54
REMARK   21  A    between atoms: _54  and  _55
REMARK   22  A    between atoms: _54  and  _57
REMARK   23  A    between atoms: _57  and  _58
REMARK   24  A    between atoms: _61  and  _63
REMARK   25  A    between atoms: _63  and  _64
REMARK   26  A    between atoms: _63  and  _66
REMARK   27  A    between atoms: _66  and  _67
REMARK   28  A    between atoms: _70  and  _72
REMARK   29  A    between atoms: _72  and  _73
REMARK   30  A    between atoms: _75  and  _77
REMARK   31  A    between atoms: _77  and  _78
REMARK   32  A    between atoms: _81  and  _83
REMARK   33  A    between atoms: _83  and  _84
REMARK   34  A    between atoms: _83  and  _86
REMARK   35  A    between atoms: _86  and  _87
REMARK   36  A    between atoms: _90  and  _92
REMARK   37  A    between atoms: _92  and  _93
REMARK   38  A    between atoms: _92  and  _95
REMARK   39  A    between atoms: _95  and  _96
REMARK   40  A    between atoms: _99  and  _101
REMARK   41  A    between atoms: _101  and  _102
REMARK   42  A    between atoms: _101  and  _104
REMARK   43  A    between atoms: _104  and  _105
REMARK   44  A    between atoms: _108  and  _110
REMARK   45  A    between atoms: _110  and  _111
REMARK   46  A    between atoms: _110  and  _113
REMARK   47  A    between atoms: _116  and  _118
REMARK   48  A    between atoms: _118  and  _119
REMARK   49  A    between atoms: _118  and  _121
REMARK   50  A    between atoms: _121  and  _122
REMARK   51  A    between atoms: _125  and  _127
REMARK   52  A    between atoms: _127  and  _128
REMARK   53  A    between atoms: _127  and  _130
REMARK   54  A    between atoms: _130  and  _131
REMARK   55  A    between atoms: _131  and  _132
REMARK   56  A    between atoms: _132  and  _133
REMARK   57  A    between atoms: _133  and  _134
REMARK   58  A    between atoms: _138  and  _140
REMARK   59  A    between atoms: _140  and  _141
REMARK   60  A    between atoms: _140  and  _143
REMARK   61  A    between atoms: _143  and  _144
REMARK   62  A    between atoms: _144  and  _145
REMARK   63  A    between atoms: _147  and  _149
REMARK   64  A    between atoms: _149  and  _150
REMARK   65  A    between atoms: _149  and  _152
REMARK   66  A    between atoms: _152  and  _153
REMARK   67  A    between atoms: _156  and  _158
REMARK   68  A    between atoms: _158  and  _159
REMARK   69  A    between atoms: _161  and  _163
REMARK   70  A    between atoms: _163  and  _164
REMARK   71  A    between atoms: _166  and  _168
REMARK   72  A    between atoms: _168  and  _169
REMARK   73  A    between atoms: _168  and  _171
REMARK   74  A    between atoms: _171  and  _172
REMARK   75  A    between atoms: _175  and  _177
REMARK   76  A    between atoms: _177  and  _178
REMARK   77  A    between atoms: _180  and  _182
REMARK   78  A    between atoms: _182  and  _183
REMARK   79  A    between atoms: _185  and  _187
REMARK   80  A    between atoms: _187  and  _188
REMARK   81  A    between atoms: _187  and  _190
REMARK   82  A    between atoms: _190  and  _191
REMARK   83  A    between atoms: _197  and  _199
REMARK   84  A    between atoms: _199  and  _200
REMARK   85  A    between atoms: _199  and  _202
REMARK   86  A    between atoms: _202  and  _203
REMARK   87  A    between atoms: _206  and  _208
REMARK   88  A    between atoms: _208  and  _209
REMARK   89  A    between atoms: _208  and  _211
REMARK   90  A    between atoms: _214  and  _216
REMARK   91  A    between atoms: _216  and  _217
REMARK   92  A    between atoms: _216  and  _219
REMARK   93  A    between atoms: _219  and  _220
REMARK   94  A    between atoms: _224  and  _225
REMARK   95  A    between atoms: _230  and  _232
REMARK   96  A    between atoms: _232  and  _233
REMARK   97  A    between atoms: _232  and  _235
REMARK   98  A    between atoms: _235  and  _236
REMARK   99  A    between atoms: _240  and  _241
REMARK  100  A    between atoms: _246  and  _248
REMARK  101  A    between atoms: _248  and  _249
REMARK  102  A    between atoms: _248  and  _251
REMARK  103  A    between atoms: _254  and  _256
REMARK  104  A    between atoms: _256  and  _257
REMARK  105  A    between atoms: _256  and  _259
REMARK  106  A    between atoms: _259  and  _260
REMARK  107  A    between atoms: _265  and  _267
REMARK  108  A    between atoms: _267  and  _268
REMARK  109  A    between atoms: _267  and  _270
REMARK  110  A    between atoms: _270  and  _271
REMARK  111  A    between atoms: _274  and  _276
REMARK  112  A    between atoms: _276  and  _277
REMARK  113  A    between atoms: _276  and  _279
REMARK  114  A    between atoms: _279  and  _280
REMARK  115  A    between atoms: _283  and  _285
REMARK  116  A    between atoms: _285  and  _286
REMARK  117  A    between atoms: _288  and  _290
REMARK  118  A    between atoms: _290  and  _291
REMARK  119  A    between atoms: _290  and  _293
REMARK  120  A    between atoms: _293  and  _294
REMARK  121  A    between atoms: _294  and  _295
REMARK  122  A    between atoms: _295  and  _296
REMARK  123  A    between atoms: _305  and  _307
REMARK  124  A    between atoms: _307  and  _308
REMARK  125  A    between atoms: _307  and  _310
REMARK  126  A    between atoms: _310  and  _311
REMARK  127  A    between atoms: _316  and  _318
REMARK  128  A    between atoms: _318  and  _319
REMARK  129  A    between atoms: _318  and  _321
REMARK  130  A    between atoms: _321  and  _322
REMARK  131  A    between atoms: _322  and  _323
REMARK  132  A    between atoms: _323  and  _324
REMARK  133  A    between atoms: _334  and  _335
REMARK  134  A    between atoms: _340  and  _342
REMARK  135  A    between atoms: _342  and  _343
REMARK  136  A    between atoms: _342  and  _345
REMARK  137  A    between atoms: _345  and  _346
REMARK  138  A    between atoms: _349  and  _351
REMARK  139  A    between atoms: _351  and  _352
REMARK  140  A    between atoms: _351  and  _354
REMARK  141  A    between atoms: _354  and  _355
REMARK  142  A    between atoms: _358  and  _360
REMARK  143  A    between atoms: _360  and  _361
REMARK  144  A    between atoms: _360  and  _363
REMARK  145  A    between atoms: _363  and  _364
REMARK  146  A    between atoms: _367  and  _369
REMARK  147  A    between atoms: _369  and  _370
REMARK  148  A    between atoms: _369  and  _372
REMARK  149  A    between atoms: _372  and  _373
REMARK  150  A    between atoms: _376  and  _378
REMARK  151  A    between atoms: _378  and  _379
REMARK  152  A    between atoms: _378  and  _381
REMARK  153  A    between atoms: _381  and  _382
REMARK  154  A    between atoms: _385  and  _387
REMARK  155  A    between atoms: _387  and  _388
REMARK  156  A    between atoms: _390  and  _392
REMARK  157  A    between atoms: _392  and  _393
REMARK  158  A    between atoms: _396  and  _398
REMARK  159  A    between atoms: _398  and  _399
REMARK  160  A    between atoms: _398  and  _401
REMARK  161  A    between atoms: _401  and  _402
REMARK  162  A    between atoms: _405  and  _407
REMARK  163  A    between atoms: _407  and  _408
REMARK  164  A    between atoms: _407  and  _410
REMARK  165  A    between atoms: _410  and  _411
REMARK  166  A    between atoms: _414  and  _416
REMARK  167  A    between atoms: _416  and  _417
REMARK  168  A    between atoms: _416  and  _419
REMARK  169  A    between atoms: _419  and  _420
REMARK  170  A    between atoms: _423  and  _425
REMARK  171  A    between atoms: _425  and  _426
REMARK  172  A    between atoms: _425  and  _428
REMARK  173  A    between atoms: _431  and  _433
REMARK  174  A    between atoms: _433  and  _434
REMARK  175  A    between atoms: _433  and  _436
REMARK  176  A    between atoms: _436  and  _437
REMARK  177  A    between atoms: _440  and  _442
REMARK  178  A    between atoms: _442  and  _443
REMARK  179  A    between atoms: _442  and  _445
REMARK  180  A    between atoms: _445  and  _446
REMARK  181  A    between atoms: _446  and  _447
REMARK  182  A    between atoms: _447  and  _448
REMARK  183  A    between atoms: _448  and  _449
REMARK  184  A    between atoms: _453  and  _455
REMARK  185  A    between atoms: _455  and  _456
REMARK  186  A    between atoms: _455  and  _458
REMARK  187  A    between atoms: _458  and  _459
REMARK  188  A    between atoms: _459  and  _460
REMARK  189  A    between atoms: _462  and  _464
REMARK  190  A    between atoms: _464  and  _465
REMARK  191  A    between atoms: _464  and  _467
REMARK  192  A    between atoms: _467  and  _468
REMARK  193  A    between atoms: _471  and  _473
REMARK  194  A    between atoms: _473  and  _474
REMARK  195  A    between atoms: _476  and  _478
REMARK  196  A    between atoms: _478  and  _479
REMARK  197  A    between atoms: _481  and  _483
REMARK  198  A    between atoms: _483  and  _484
REMARK  199  A    between atoms: _483  and  _486
REMARK  200  A    between atoms: _486  and  _487
REMARK  201  A    between atoms: _490  and  _492
REMARK  202  A    between atoms: _492  and  _493
REMARK  203  A    between atoms: _495  and  _497
REMARK  204  A    between atoms: _497  and  _498
REMARK  205  A    between atoms: _500  and  _502
REMARK  206  A    between atoms: _502  and  _503
REMARK  207  A    between atoms: _502  and  _505
REMARK  208  A    between atoms: _505  and  _506
REMARK  209  A    between atoms: _512  and  _514
REMARK  210  A    between atoms: _514  and  _515
REMARK  211  A    between atoms: _514  and  _517
REMARK  212  A    between atoms: _517  and  _518
REMARK  213  A    between atoms: _521  and  _523
REMARK  214  A    between atoms: _523  and  _524
REMARK  215  A    between atoms: _523  and  _526
REMARK  216  A    between atoms: _529  and  _531
REMARK  217  A    between atoms: _531  and  _532
REMARK  218  A    between atoms: _531  and  _534
REMARK  219  A    between atoms: _534  and  _535
REMARK  220  A    between atoms: _539  and  _540
REMARK  221  A    between atoms: _545  and  _547
REMARK  222  A    between atoms: _547  and  _548
REMARK  223  A    between atoms: _547  and  _550
REMARK  224  A    between atoms: _550  and  _551
REMARK  225  A    between atoms: _555  and  _556
REMARK  226  A    between atoms: _561  and  _563
REMARK  227  A    between atoms: _563  and  _564
REMARK  228  A    between atoms: _563  and  _566
REMARK  229  A    between atoms: _569  and  _571
REMARK  230  A    between atoms: _571  and  _572
REMARK  231  A    between atoms: _571  and  _574
REMARK  232  A    between atoms: _574  and  _575
REMARK  233  A    between atoms: _580  and  _582
REMARK  234  A    between atoms: _582  and  _583
REMARK  235  A    between atoms: _582  and  _585
REMARK  236  A    between atoms: _585  and  _586
REMARK  237  A    between atoms: _589  and  _591
REMARK  238  A    between atoms: _591  and  _592
REMARK  239  A    between atoms: _591  and  _594
REMARK  240  A    between atoms: _594  and  _595
REMARK  241  A    between atoms: _598  and  _600
REMARK  242  A    between atoms: _600  and  _601
REMARK  243  A    between atoms: _603  and  _605
REMARK  244  A    between atoms: _605  and  _606
REMARK  245  A    between atoms: _605  and  _608
REMARK  246  A    between atoms: _608  and  _609
REMARK  247  A    between atoms: _609  and  _610
REMARK  248  A    between atoms: _610  and  _611
REMARK  249  A    between atoms: _620  and  _622
REMARK  250  A    between atoms: _622  and  _623
REMARK  251  A    between atoms: _622  and  _625
REMARK  252  A    between atoms: _625  and  _626
REMARK                            x       y       z     vdW  Elec       q    Type
REMARK                         _______ _______ _______ _____ _____    ______ ____
ROOT
ATOM      1  C   ARG A   1      11.057  33.329  -2.715  0.00  0.00    +0.241 C 
ATOM      2  N   PRO A   2      12.315  32.881  -2.561  0.00  0.00    -0.272 N 
ATOM      3  CD  PRO A   2      12.997  32.500  -1.307  0.00  0.00    +0.094 C 
ATOM      4  CG  PRO A   2      14.311  31.908  -1.809  0.00  0.00    +0.024 C 
ATOM      5  CB  PRO A   2      14.619  32.776  -2.998  0.00  0.00    +0.031 C 
ATOM      6  CA  PRO A   2      13.259  32.909  -3.684  0.00  0.00    +0.152 C 
ATOM      7  O   ARG A   1      10.651  33.776  -3.787  0.00  0.00    -0.273 OA
ENDROOT
BRANCH   6   8
ATOM      8  C   PRO A   2      13.002  31.789  -4.688  0.00  0.00    +0.241 C 
ATOM      9  O   PRO A   2      13.765  30.833  -4.763  0.00  0.00    -0.273 OA
ATOM     10  N   LEU A   3      11.922  31.925  -5.452  0.00  0.00    -0.298 N 
ATOM     11  H   LEU A   3      11.319  32.763  -5.324  0.00  0.00    +0.150 HD
BRANCH  10  12
ATOM     12  CA  LEU A   3      11.554  30.942  -6.461  0.00  0.00    +0.137 C 
BRANCH  12  13
ATOM     13  C   LEU A   3      12.188  31.283  -7.804  0.00  0.00    +0.227 C 
ATOM     14  O   LEU A   3      12.269  32.453  -8.182  0.00  0.00    -0.286 OA
ENDBRANCH  12  13
BRANCH  12  15
ATOM     15  CB  LEU A   3      10.033  30.900  -6.627  0.00  0.00    +0.028 C 
BRANCH  15  16
ATOM     16  CG  LEU A   3       9.211  30.569  -5.385  0.00  0.00    +0.002 C 
ATOM     17  CD2 LEU A   3       9.525  29.156  -4.928  0.00  0.00    +0.000 C 
ATOM     18  CD1 LEU A   3       7.726  30.723  -5.695  0.00  0.00    +0.000 C 
ENDBRANCH  15  16
ENDBRANCH  12  15
ENDBRANCH  10  12
ENDBRANCH   6   8
BRANCH   1  19
ATOM     19  CA  ARG A   1      10.134  33.268  -1.501  0.00  0.00    +0.145 C 
BRANCH  19  20
ATOM     20  N   ARG A   1       9.388  34.518  -1.363  0.00  0.00    -0.238 NA
ATOM     21  H   ARG A   1       8.349  34.508  -1.404  0.00  0.00    +0.142 HD
ENDBRANCH  19  20
BRANCH  19  22
ATOM     22  CB  ARG A   1       9.178  32.082  -1.652  0.00  0.00    +0.030 C 
BRANCH  22  23
ATOM     23  CG  ARG A   1       8.474  31.696  -0.371  0.00  0.00    +0.045 C 
BRANCH  23  24
ATOM     24  CD  ARG A   1       7.646  30.435  -0.553  0.00  0.00    +0.174 C 
BRANCH  24  25
ATOM     25  NE  ARG A   1       7.067  29.995   0.708  0.00  0.00    -0.265 N 
ATOM     26  HE  ARG A   1       7.328  30.515   1.570  0.00  0.00    +0.259 HD
ATOM     27  CZ  ARG A   1       6.227  28.973   0.829  0.00  0.00    +0.342 C 
ATOM     28  NH2 ARG A   1       5.761  28.637   2.026  0.00  0.00    -0.292 N 
ATOM     29 HH21 ARG A   1       6.054  29.174   2.867  0.00  0.00    +0.255 HD
ATOM     30 HH22 ARG A   1       5.103  27.837   2.122  0.00  0.00    +0.255 HD
ATOM     31  NH1 ARG A   1       5.863  28.280  -0.246  0.00  0.00    -0.292 N 
ATOM     32 HH11 ARG A   1       5.205  27.480  -0.151  0.00  0.00    +0.255 HD
ATOM     33 HH12 ARG A   1       6.236  28.538  -1.182  0.00  0.00    +0.255 HD
ENDBRANCH  24  25
ENDBRANCH  23  24
ENDBRANCH  22  23
ENDBRANCH  19  22
ENDBRANCH   1  19
TORSDOF 11
REMARK  Name = ../refined-set-2016/1w5y/1w5y_pocket.pdb
REMARK  252 active torsions:
REMARK  status: ('A' for Active; 'I' for Inactive)
REMARK    1  A    between atoms: _1  and  _3
REMARK    2  A    between atoms: _3  and  _4
REMARK    3  A    between atoms: _3  and  _6
REMARK    4  A    between atoms: _6  and  _7
REMARK    5  A    between atoms: _7  and  _8
REMARK    6  A    between atoms: _8  and  _9
REMARK    7  A    between atoms: _19  and  _20
REMARK    8  A    between atoms: _25  and  _27
REMARK    9  A    between atoms: _27  and  _28
REMARK   10  A    between atoms: _27  and  _30
REMARK   11  A    between atoms: _30  and  _31
REMARK   12  A    between atoms: _34  and  _36
REMARK   13  A    between atoms: _36  and  _37
REMARK   14  A    between atoms: _36  and  _39
REMARK   15  A    between atoms: _39  and  _40
REMARK   16  A    between atoms: _43  and  _45
REMARK   17  A    between atoms: _45  and  _46
REMARK   18  A    between atoms: _45  and  _48
REMARK   19  A    between atoms: _48  and  _49
REMARK   20  A    between atoms: _52  and  _54
REMARK   21  A    between atoms: _54  and  _55
REMARK   22  A    between atoms: _54  and  _57
REMARK   23  A    between atoms: _57  and  _58
REMARK   24  A    between atoms: _61  and  _63
REMARK   25  A    between atoms: _63  and  _64
REMARK   26  A    between atoms: _63  and  _66
REMARK   27  A    between atoms: _66  and  _67
REMARK   28  A    between atoms: _70  and  _72
REMARK   29  A    between atoms: _72  and  _73
REMARK   30  A    between atoms: _75  and  _77
REMARK   31  A    between atoms: _77  and  _78
REMARK   32  A    between atoms: _81  and  _83
REMARK   33  A    between atoms: _83  and  _84
REMARK   34  A    between atoms: _83  and  _86
REMARK   35  A    between atoms: _86  and  _87
REMARK   36  A    between atoms: _90  and  _92
REMARK   37  A    between atoms: _92  and  _93
REMARK   38  A    between atoms: _92  and  _95
REMARK   39  A    between atoms: _95  and  _96
REMARK   40  A    between atoms: _99  and  _101
REMARK   41  A    between atoms: _101  and  _102
REMARK   42  A    between atoms: _101  and  _104
REMARK   43  A    between atoms: _104  and  _105
REMARK   44  A    between atoms: _108  and  _110
REMARK   45  A    between atoms: _110  and  _111
REMARK   46  A    between atoms: _110  and  _113
REMARK   47  A    between atoms: _116  and  _118
REMARK   48  A    between atoms: _118  and  _119
REMARK   49  A    between atoms: _118  and  _121
REMARK   50  A    between atoms: _121  and  _122
REMARK   51  A    between atoms: _125  and  _127
REMARK   52  A    between atoms: _127  and  _128
REMARK   53  A    between atoms: _127  and  _130
REMARK   54  A    between atoms: _130  and  _131
REMARK   55  A    between atoms: _131  and  _132
REMARK   56  A    between atoms: _132  and  _133
REMARK   57  A    between atoms: _133  and  _134
REMARK   58  A    between atoms: _138  and  _140
REMARK   59  A    between atoms: _140  and  _141
REMARK   60  A    between atoms: _140  and  _143
REMARK   61  A    between atoms: _143  and  _144
REMARK   62  A    between atoms: _144  and  _145
REMARK   63  A    between atoms: _147  and  _149
REMARK   64  A    between atoms: _149  and  _150
REMARK   65  A    between atoms: _149  and  _152
REMARK   66  A    between atoms: _152  and  _153
REMARK   67  A    between atoms: _156  and  _158
REMARK   68  A    between atoms: _158  and  _159
REMARK   69  A    between atoms: _161  and  _163
REMARK   70  A    between atoms: _163  and  _164
REMARK   71  A    between atoms: _166  and  _168
REMARK   72  A    between atoms: _168  and  _169
REMARK   73  A    between atoms: _168  and  _171
REMARK   74  A    between atoms: _171  and  _172
REMARK   75  A    between atoms: _175  and  _177
REMARK   76  A    between atoms: _177  and  _178
REMARK   77  A    between atoms: _180  and  _182
REMARK   78  A    between atoms: _182  and  _183
REMARK   79  A    between atoms: _185  and  _187
REMARK   80  A    between atoms: _187  and  _188
REMARK   81  A    between atoms: _187  and  _190
REMARK   82  A    between atoms: _190  and  _191
REMARK   83  A    between atoms: _197  and  _199
REMARK   84  A    between atoms: _199  and  _200
REMARK   85  A    between atoms: _199  and  _202
REMARK   86  A    between atoms: _202  and  _203
REMARK   87  A    between atoms: _206  and  _208
REMARK   88  A    between atoms: _208  and  _209
REMARK   89  A    between atoms: _208  and  _211
REMARK   90  A    between atoms: _214  and  _216
REMARK   91  A    between atoms: _216  and  _217
REMARK   92  A    between atoms: _216  and  _219
REMARK   93  A    between atoms: _219  and  _220
REMARK   94  A    between atoms: _224  and  _225
REMARK   95  A    between atoms: _230  and  _232
REMARK   96  A    between atoms: _232  and  _233
REMARK   97  A    between atoms: _232  and  _235
REMARK   98  A    between atoms: _235  and  _236
REMARK   99  A    between atoms: _240  and  _241
REMARK  100  A    between atoms: _246  and  _248
REMARK  101  A    between atoms: _248  and  _249
REMARK  102  A    between atoms: _248  and  _251
REMARK  103  A    between atoms: _254  and  _256
REMARK  104  A    between atoms: _256  and  _257
REMARK  105  A    between atoms: _256  and  _259
REMARK  106  A    between atoms: _259  and  _260
REMARK  107  A    between atoms: _265  and  _267
REMARK  108  A    between atoms: _267  and  _268
REMARK  109  A    between atoms: _267  and  _270
REMARK  110  A    between atoms: _270  and  _271
REMARK  111  A    between atoms: _274  and  _276
REMARK  112  A    between atoms: _276  and  _277
REMARK  113  A    between atoms: _276  and  _279
REMARK  114  A    between atoms: _279  and  _280
REMARK  115  A    between atoms: _283  and  _285
REMARK  116  A    between atoms: _285  and  _286
REMARK  117  A    between atoms: _288  and  _290
REMARK  118  A    between atoms: _290  and  _291
REMARK  119  A    between atoms: _290  and  _293
REMARK  120  A    between atoms: _293  and  _294
REMARK  121  A    between atoms: _294  and  _295
REMARK  122  A    between atoms: _295  and  _296
REMARK  123  A    between atoms: _305  and  _307
REMARK  124  A    between atoms: _307  and  _308
REMARK  125  A    between atoms: _307  and  _310
REMARK  126  A    between atoms: _310  and  _311
REMARK  127  A    between atoms: _316  and  _318
REMARK  128  A    between atoms: _318  and  _319
REMARK  129  A    between atoms: _318  and  _321
REMARK  130  A    between atoms: _321  and  _322
REMARK  131  A    between atoms: _322  and  _323
REMARK  132  A    between atoms: _323  and  _324
REMARK  133  A    between atoms: _334  and  _335
REMARK  134  A    between atoms: _340  and  _342
REMARK  135  A    between atoms: _342  and  _343
REMARK  136  A    between atoms: _342  and  _345
REMARK  137  A    between atoms: _345  and  _346
REMARK  138  A    between atoms: _349  and  _351
REMARK  139  A    between atoms: _351  and  _352
REMARK  140  A    between atoms: _351  and  _354
REMARK  141  A    between atoms: _354  and  _355
REMARK  142  A    between atoms: _358  and  _360
REMARK  143  A    between atoms: _360  and  _361
REMARK  144  A    between atoms: _360  and  _363
REMARK  145  A    between atoms: _363  and  _364
REMARK  146  A    between atoms: _367  and  _369
REMARK  147  A    between atoms: _369  and  _370
REMARK  148  A    between atoms: _369  and  _372
REMARK  149  A    between atoms: _372  and  _373
REMARK  150  A    between atoms: _376  and  _378
REMARK  151  A    between atoms: _378  and  _379
REMARK  152  A    between atoms: _378  and  _381
REMARK  153  A    between atoms: _381  and  _382
REMARK  154  A    between atoms: _385  and  _387
REMARK  155  A    between atoms: _387  and  _388
REMARK  156  A    between atoms: _390  and  _392
REMARK  157  A    between atoms: _392  and  _393
REMARK  158  A    between atoms: _396  and  _398
REMARK  159  A    between atoms: _398  and  _399
REMARK  160  A    between atoms: _398  and  _401
REMARK  161  A    between atoms: _401  and  _402
REMARK  162  A    between atoms: _405  and  _407
REMARK  163  A    between atoms: _407  and  _408
REMARK  164  A    between atoms: _407  and  _410
REMARK  165  A    between atoms: _410  and  _411
REMARK  166  A    between atoms: _414  and  _416
REMARK  167  A    between atoms: _416  and  _417
REMARK  168  A    between atoms: _416  and  _419
REMARK  169  A    between atoms: _419  and  _420
REMARK  170  A    between atoms: _423  and  _425
REMARK  171  A    between atoms: _425  and  _426
REMARK  172  A    between atoms: _425  and  _428
REMARK  173  A    between atoms: _431  and  _433
REMARK  174  A    between atoms: _433  and  _434
REMARK  175  A    between atoms: _433  and  _436
REMARK  176  A    between atoms: _436  and  _437
REMARK  177  A    between atoms: _440  and  _442
REMARK  178  A    between atoms: _442  and  _443
REMARK  179  A    between atoms: _442  and  _445
REMARK  180  A    between atoms: _445  and  _446
REMARK  181  A    between atoms: _446  and  _447
REMARK  182  A    between atoms: _447  and  _448
REMARK  183  A    between atoms: _448  and  _449
REMARK  184  A    between atoms: _453  and  _455
REMARK  185  A    between atoms: _455  and  _456
REMARK  186  A    between atoms: _455  and  _458
REMARK  187  A    between atoms: _458  and  _459
REMARK  188  A    between atoms: _459  and  _460
REMARK  189  A    between atoms: _462  and  _464
REMARK  190  A    between atoms: _464  and  _465
REMARK  191  A    between atoms: _464  and  _467
REMARK  192  A    between atoms: _467  and  _468
REMARK  193  A    between atoms: _471  and  _473
REMARK  194  A    between atoms: _473  and  _474
REMARK  195  A    between atoms: _476  and  _478
REMARK  196  A    between atoms: _478  and  _479
REMARK  197  A    between atoms: _481  and  _483
REMARK  198  A    between atoms: _483  and  _484
REMARK  199  A    between atoms: _483  and  _486
REMARK  200  A    between atoms: _486  and  _487
REMARK  201  A    between atoms: _490  and  _492
REMARK  202  A    between atoms: _492  and  _493
REMARK  203  A    between atoms: _495  and  _497
REMARK  204  A    between atoms: _497  and  _498
REMARK  205  A    between atoms: _500  and  _502
REMARK  206  A    between atoms: _502  and  _503
REMARK  207  A    between atoms: _502  and  _505
REMARK  208  A    between atoms: _505  and  _506
REMARK  209  A    between atoms: _512  and  _514
REMARK  210  A    between atoms: _514  and  _515
REMARK  211  A    between atoms: _514  and  _517
REMARK  212  A    between atoms: _517  and  _518
REMARK  213  A    between atoms: _521  and  _523
REMARK  214  A    between atoms: _523  and  _524
REMARK  215  A    between atoms: _523  and  _526
REMARK  216  A    between atoms: _529  and  _531
REMARK  217  A    between atoms: _531  and  _532
REMARK  218  A    between atoms: _531  and  _534
REMARK  219  A    between atoms: _534  and  _535
REMARK  220  A    between atoms: _539  and  _540
REMARK  221  A    between atoms: _545  and  _547
REMARK  222  A    between atoms: _547  and  _548
REMARK  223  A    between atoms: _547  and  _550
REMARK  224  A    between atoms: _550  and  _551
REMARK  225  A    between atoms: _555  and  _556
REMARK  226  A    between atoms: _561  and  _563
REMARK  227  A    between atoms: _563  and  _564
REMARK  228  A    between atoms: _563  and  _566
REMARK  229  A    between atoms: _569  and  _571
REMARK  230  A    between atoms: _571  and  _572
REMARK  231  A    between atoms: _571  and  _574
REMARK  232  A    between atoms: _574  and  _575
REMARK  233  A    between atoms: _580  and  _582
REMARK  234  A    between atoms: _582  and  _583
REMARK  235  A    between atoms: _582  and  _585
REMARK  236  A    between atoms: _585  and  _586
REMARK  237  A    between atoms: _589  and  _591
REMARK  238  A    between atoms: _591  and  _592
REMARK  239  A    between atoms: _591  and  _594
REMARK  240  A    between atoms: _594  and  _595
REMARK  241  A    between atoms: _598  and  _600
REMARK  242  A    between atoms: _600  and  _601
REMARK  243  A    between atoms: _603  and  _605
REMARK  244  A    between atoms: _605  and  _606
REMARK  245  A    between atoms: _605  and  _608
REMARK  246  A    between atoms: _608  and  _609
REMARK  247  A    between atoms: _609  and  _610
REMARK  248  A    between atoms: _610  and  _611
REMARK  249  A    between atoms: _620  and  _622
REMARK  250  A    between atoms: _622  and  _623
REMARK  251  A    between atoms: _622  and  _625
REMARK  252  A    between atoms: _625  and  _626
REMARK                            x       y       z     vdW  Elec       q    Type
REMARK                         _______ _______ _______ _____ _____    ______ ____
ROOT
ATOM      1  C   ALA A   6      19.877  21.728   2.178  0.00  0.00    +0.241 C 
ATOM      2  N   ASP A   7      20.323  20.614   2.757  0.00  0.00    -0.297 N 
ATOM      3  H   ASP A   7      19.746  20.134   3.477  0.00  0.00    +0.150 HD
ATOM      4  O   ALA A   6      20.534  22.335   1.335  0.00  0.00    -0.273 OA
ENDROOT
BRANCH   1   5
ATOM      5  CA  ALA A   6      18.502  22.249   2.603  0.00  0.00    +0.149 C 
ATOM      6  CB  ALA A   6      17.534  22.166   1.430  0.00  0.00    +0.031 C 
BRANCH   5   9
ATOM      7  C   GLY A   5      18.652  23.945   4.352  0.00  0.00    +0.243 C 
ATOM      8  O   GLY A   5      18.627  23.098   5.241  0.00  0.00    -0.273 OA
ATOM      9  N   ALA A   6      18.597  23.635   3.061  0.00  0.00    -0.297 N 
ATOM     10  H   ALA A   6      18.622  24.399   2.356  0.00  0.00    +0.150 HD
BRANCH   7  11
ATOM     11  CA  GLY A   5      18.746  25.420   4.699  0.00  0.00    +0.176 C 
BRANCH  11  14
ATOM     12  C   THR A   4      20.161  26.505   3.079  0.00  0.00    +0.243 C 
ATOM     13  O   THR A   4      21.173  26.016   3.588  0.00  0.00    -0.273 OA
ATOM     14  N   GLY A   5      18.939  26.275   3.544  0.00  0.00    -0.295 N 
ATOM     15  H   GLY A   5      18.117  26.710   3.078  0.00  0.00    +0.150 HD
BRANCH  12  16
ATOM     16  CA  THR A   4      20.266  27.418   1.861  0.00  0.00    +0.176 C 
BRANCH  16  18
ATOM     17  C   ASP A   3      18.394  26.589   0.549  0.00  0.00    +0.241 C 
ATOM     18  N   THR A   4      18.983  27.597   1.188  0.00  0.00    -0.295 N 
ATOM     19  H   THR A   4      18.521  28.529   1.208  0.00  0.00    +0.150 HD
ATOM     20  O   ASP A   3      18.874  25.458   0.509  0.00  0.00    -0.273 OA
BRANCH  17  21
ATOM     21  CA  ASP A   3      17.053  26.879  -0.125  0.00  0.00    +0.160 C 
BRANCH  21  24
ATOM     22  C   LEU A   2      16.687  28.251  -2.110  0.00  0.00    +0.241 C 
ATOM     23  O   LEU A   2      16.379  29.238  -1.440  0.00  0.00    -0.273 OA
ATOM     24  N   ASP A   3      17.087  27.106  -1.569  0.00  0.00    -0.297 N 
ATOM     25  H   ASP A   3      17.435  26.348  -2.191  0.00  0.00    +0.150 HD
BRANCH  22  26
ATOM     26  CA  LEU A   2      16.649  28.301  -3.639  0.00  0.00    +0.149 C 
BRANCH  26  29
ATOM     27  C   LEU A   1      14.519  27.157  -3.950  0.00  0.00    +0.238 C 
ATOM     28  O   LEU A   1      15.038  26.057  -3.779  0.00  0.00    -0.274 OA
ATOM     29  N   LEU A   2      15.214  28.293  -3.929  0.00  0.00    -0.297 N 
ATOM     30  H   LEU A   2      14.728  29.192  -4.122  0.00  0.00    +0.150 HD
BRANCH  27  31
ATOM     31  CA  LEU A   1      13.019  27.269  -4.205  0.00  0.00    +0.145 C 
BRANCH  31  32
ATOM     32  N   LEU A   1      12.557  26.323  -5.208  0.00  0.00    -0.238 NA
ATOM     33  H   LEU A   1      12.384  25.337  -4.925  0.00  0.00    +0.142 HD
ENDBRANCH  31  32
BRANCH  31  34
ATOM     34  CB  LEU A   1      12.268  27.005  -2.899  0.00  0.00    +0.026 C 
BRANCH  34  35
ATOM     35  CG  LEU A   1      12.549  27.872  -1.674  0.00  0.00    +0.002 C 
ATOM     36  CD2 LEU A   1      11.857  27.256  -0.464  0.00  0.00    +0.000 C 
ATOM     37  CD1 LEU A   1      12.025  29.272  -1.904  0.00  0.00    +0.000 C 
ENDBRANCH  34  35
ENDBRANCH  31  34
ENDBRANCH  27  31
ENDBRANCH  26  29
BRANCH  26  38
ATOM     38  CB  LEU A   2      17.289  29.590  -4.158  0.00  0.00    +0.029 C 
BRANCH  38  39
ATOM     39  CG  LEU A   2      17.208  29.831  -5.668  0.00  0.00    +0.002 C 
ATOM     40  CD2 LEU A   2      18.081  31.023  -6.020  0.00  0.00    +0.000 C 
ATOM     41  CD1 LEU A   2      17.671  28.588  -6.428  0.00  0.00    +0.000 C 
ENDBRANCH  38  39
ENDBRANCH  26  38
ENDBRANCH  22  26
ENDBRANCH  21  24
BRANCH  21  42
ATOM     42  CB  ASP A   3      16.094  25.710   0.124  0.00  0.00    +0.143 C 
BRANCH  42  43
ATOM     43  CG  ASP A   3      15.711  25.555   1.579  0.00  0.00    +0.367 C 
ATOM     44  OD2 ASP A   3      16.303  26.234   2.445  0.00  0.00    -0.246 OA
ATOM     45  OD1 ASP A   3      14.812  24.741   1.846  0.00  0.00    -0.246 OA
ENDBRANCH  42  43
ENDBRANCH  21  42
ENDBRANCH  17  21
ENDBRANCH  16  18
BRANCH  16  46
ATOM     46  CB  THR A   4      20.847  28.764   2.317  0.00  0.00    +0.137 C 
ATOM     47  CG2 THR A   4      21.112  29.659   1.118  0.00  0.00    +0.034 C 
BRANCH  46  48
ATOM     48  OG1 THR A   4      19.921  29.404   3.200  0.00  0.00    -0.382 OA
ATOM     49  HG1 THR A   4      19.765  28.826   3.988  0.00  0.00    +0.210 HD
ENDBRANCH  46  48
ENDBRANCH  16  46
ENDBRANCH  12  16
ENDBRANCH  11  14
ENDBRANCH   7  11
ENDBRANCH   5   9
ENDBRANCH   1   5
BRANCH   2  50
ATOM     50  CA  ASP A   7      21.631  20.064   2.377  0.00  0.00    +0.160 C 
BRANCH  50  51
ATOM     51  C   ASP A   7      21.610  19.523   0.946  0.00  0.00    +0.241 C 
ATOM     52  N   ASP A   8      20.489  18.914   0.576  0.00  0.00    -0.297 N 
ATOM     53  H   ASP A   8      19.697  18.866   1.248  0.00  0.00    +0.150 HD
ATOM     54  O   ASP A   7      22.590  19.647   0.204  0.00  0.00    -0.273 OA
BRANCH  52  55
ATOM     55  CA  ASP A   8      20.334  18.312  -0.739  0.00  0.00    +0.160 C 
BRANCH  55  56
ATOM     56  C   ASP A   8      19.200  18.923  -1.550  0.00  0.00    +0.241 C 
ATOM     57  O   ASP A   8      18.452  19.773  -1.069  0.00  0.00    -0.273 OA
ATOM     58  N   THR A   9      19.081  18.463  -2.791  0.00  0.00    -0.295 N 
ATOM     59  H   THR A   9      19.750  17.736  -3.116  0.00  0.00    +0.150 HD
BRANCH  58  60
ATOM     60  CA  THR A   9      18.058  18.929  -3.718  0.00  0.00    +0.176 C 
BRANCH  60  61
ATOM     61  C   THR A   9      16.985  17.847  -3.841  0.00  0.00    +0.243 C 
ATOM     62  N   VAL A  10      15.732  18.221  -3.596  0.00  0.00    -0.297 N 
ATOM     63  H   VAL A  10      15.536  19.210  -3.342  0.00  0.00    +0.150 HD
ATOM     64  O   THR A   9      17.289  16.691  -4.136  0.00  0.00    -0.273 OA
BRANCH  62  65
ATOM     65  CA  VAL A  10      14.627  17.270  -3.677  0.00  0.00    +0.149 C 
BRANCH  65  66
ATOM     66  C   VAL A  10      13.487  17.835  -4.511  0.00  0.00    +0.241 C 
ATOM     67  O   VAL A  10      13.058  18.966  -4.305  0.00  0.00    -0.273 OA
ATOM     68  N   LEU A  11      12.992  17.040  -5.449  0.00  0.00    -0.298 N 
ATOM     69  H   LEU A  11      13.386  16.085  -5.569  0.00  0.00    +0.150 HD
BRANCH  68  70
ATOM     70  CA  LEU A  11      11.905  17.480  -6.315  0.00  0.00    +0.137 C 
BRANCH  70  71
ATOM     71  C   LEU A  11      10.677  16.601  -6.135  0.00  0.00    +0.227 C 
ATOM     72  O   LEU A  11      10.778  15.454  -5.691  0.00  0.00    -0.286 OA
ENDBRANCH  70  71
BRANCH  70  73
ATOM     73  CB  LEU A  11      12.347  17.430  -7.779  0.00  0.00    +0.028 C 
BRANCH  73  74
ATOM     74  CG  LEU A  11      13.617  18.202  -8.143  0.00  0.00    +0.002 C 
ATOM     75  CD2 LEU A  11      13.402  19.687  -7.943  0.00  0.00    +0.000 C 
ATOM     76  CD1 LEU A  11      13.992  17.908  -9.587  0.00  0.00    +0.000 C 
ENDBRANCH  73  74
ENDBRANCH  70  73
ENDBRANCH  68  70
ENDBRANCH  65  66
BRANCH  65  77
ATOM     77  CB  VAL A  10      14.086  16.924  -2.275  0.00  0.00    +0.027 C 
ATOM     78  CG2 VAL A  10      15.219  16.446  -1.395  0.00  0.00    +0.002 C 
ATOM     79  CG1 VAL A  10      13.013  15.847  -2.379  0.00  0.00    +0.002 C 
ENDBRANCH  65  77
ENDBRANCH  62  65
ENDBRANCH  60  61
BRANCH  60  80
ATOM     80  CB  THR A   9      18.695  19.218  -5.102  0.00  0.00    +0.137 C 
ATOM     81  CG2 THR A   9      17.630  19.523  -6.150  0.00  0.00    +0.034 C 
BRANCH  80  82
ATOM     82  OG1 THR A   9      19.583  20.339  -4.985  0.00  0.00    -0.382 OA
ATOM     83  HG1 THR A   9      20.293  20.129  -4.328  0.00  0.00    +0.210 HD
ENDBRANCH  80  82
ENDBRANCH  60  80
ENDBRANCH  58  60
ENDBRANCH  55  56
BRANCH  55  84
ATOM     84  CB  ASP A   8      20.092  16.808  -0.586  0.00  0.00    +0.143 C 
BRANCH  84  85
ATOM     85  CG  ASP A   8      21.131  16.137   0.300  0.00  0.00    +0.367 C 
ATOM     86  OD2 ASP A   8      20.750  15.550   1.336  0.00  0.00    -0.246 OA
ATOM     87  OD1 ASP A   8      22.328  16.204  -0.038  0.00  0.00    -0.246 OA
ENDBRANCH  84  85
ENDBRANCH  55  84
ENDBRANCH  52  55
ENDBRANCH  50  51
BRANCH  50  88
ATOM     88  CB  ASP A   7      22.044  18.912   3.296  0.00  0.00    +0.143 C 
BRANCH  88  89
ATOM     89  CG  ASP A   7      22.221  19.336   4.738  0.00  0.00    +0.367 C 
ATOM     90  OD2 ASP A   7      21.984  18.493   5.627  0.00  0.00    -0.246 OA
ATOM     91  OD1 ASP A   7      22.610  20.491   4.985  0.00  0.00    -0.246 OA
ENDBRANCH  88  89
ENDBRANCH  50  88
ENDBRANCH   2  50
TORSDOF 39
REMARK  Name = ../refined-set-2016/1w5y/1w5y_pocket.pdb
REMARK  252 active torsions:
REMARK  status: ('A' for Active; 'I' for Inactive)
REMARK    1  A    between atoms: _1  and  _3
REMARK    2  A    between atoms: _3  and  _4
REMARK    3  A    between atoms: _3  and  _6
REMARK    4  A    between atoms: _6  and  _7
REMARK    5  A    between atoms: _7  and  _8
REMARK    6  A    between atoms: _8  and  _9
REMARK    7  A    between atoms: _19  and  _20
REMARK    8  A    between atoms: _25  and  _27
REMARK    9  A    between atoms: _27  and  _28
REMARK   10  A    between atoms: _27  and  _30
REMARK   11  A    between atoms: _30  and  _31
REMARK   12  A    between atoms: _34  and  _36
REMARK   13  A    between atoms: _36  and  _37
REMARK   14  A    between atoms: _36  and  _39
REMARK   15  A    between atoms: _39  and  _40
REMARK   16  A    between atoms: _43  and  _45
REMARK   17  A    between atoms: _45  and  _46
REMARK   18  A    between atoms: _45  and  _48
REMARK   19  A    between atoms: _48  and  _49
REMARK   20  A    between atoms: _52  and  _54
REMARK   21  A    between atoms: _54  and  _55
REMARK   22  A    between atoms: _54  and  _57
REMARK   23  A    between atoms: _57  and  _58
REMARK   24  A    between atoms: _61  and  _63
REMARK   25  A    between atoms: _63  and  _64
REMARK   26  A    between atoms: _63  and  _66
REMARK   27  A    between atoms: _66  and  _67
REMARK   28  A    between atoms: _70  and  _72
REMARK   29  A    between atoms: _72  and  _73
REMARK   30  A    between atoms: _75  and  _77
REMARK   31  A    between atoms: _77  and  _78
REMARK   32  A    between atoms: _81  and  _83
REMARK   33  A    between atoms: _83  and  _84
REMARK   34  A    between atoms: _83  and  _86
REMARK   35  A    between atoms: _86  and  _87
REMARK   36  A    between atoms: _90  and  _92
REMARK   37  A    between atoms: _92  and  _93
REMARK   38  A    between atoms: _92  and  _95
REMARK   39  A    between atoms: _95  and  _96
REMARK   40  A    between atoms: _99  and  _101
REMARK   41  A    between atoms: _101  and  _102
REMARK   42  A    between atoms: _101  and  _104
REMARK   43  A    between atoms: _104  and  _105
REMARK   44  A    between atoms: _108  and  _110
REMARK   45  A    between atoms: _110  and  _111
REMARK   46  A    between atoms: _110  and  _113
REMARK   47  A    between atoms: _116  and  _118
REMARK   48  A    between atoms: _118  and  _119
REMARK   49  A    between atoms: _118  and  _121
REMARK   50  A    between atoms: _121  and  _122
REMARK   51  A    between atoms: _125  and  _127
REMARK   52  A    between atoms: _127  and  _128
REMARK   53  A    between atoms: _127  and  _130
REMARK   54  A    between atoms: _130  and  _131
REMARK   55  A    between atoms: _131  and  _132
REMARK   56  A    between atoms: _132  and  _133
REMARK   57  A    between atoms: _133  and  _134
REMARK   58  A    between atoms: _138  and  _140
REMARK   59  A    between atoms: _140  and  _141
REMARK   60  A    between atoms: _140  and  _143
REMARK   61  A    between atoms: _143  and  _144
REMARK   62  A    between atoms: _144  and  _145
REMARK   63  A    between atoms: _147  and  _149
REMARK   64  A    between atoms: _149  and  _150
REMARK   65  A    between atoms: _149  and  _152
REMARK   66  A    between atoms: _152  and  _153
REMARK   67  A    between atoms: _156  and  _158
REMARK   68  A    between atoms: _158  and  _159
REMARK   69  A    between atoms: _161  and  _163
REMARK   70  A    between atoms: _163  and  _164
REMARK   71  A    between atoms: _166  and  _168
REMARK   72  A    between atoms: _168  and  _169
REMARK   73  A    between atoms: _168  and  _171
REMARK   74  A    between atoms: _171  and  _172
REMARK   75  A    between atoms: _175  and  _177
REMARK   76  A    between atoms: _177  and  _178
REMARK   77  A    between atoms: _180  and  _182
REMARK   78  A    between atoms: _182  and  _183
REMARK   79  A    between atoms: _185  and  _187
REMARK   80  A    between atoms: _187  and  _188
REMARK   81  A    between atoms: _187  and  _190
REMARK   82  A    between atoms: _190  and  _191
REMARK   83  A    between atoms: _197  and  _199
REMARK   84  A    between atoms: _199  and  _200
REMARK   85  A    between atoms: _199  and  _202
REMARK   86  A    between atoms: _202  and  _203
REMARK   87  A    between atoms: _206  and  _208
REMARK   88  A    between atoms: _208  and  _209
REMARK   89  A    between atoms: _208  and  _211
REMARK   90  A    between atoms: _214  and  _216
REMARK   91  A    between atoms: _216  and  _217
REMARK   92  A    between atoms: _216  and  _219
REMARK   93  A    between atoms: _219  and  _220
REMARK   94  A    between atoms: _224  and  _225
REMARK   95  A    between atoms: _230  and  _232
REMARK   96  A    between atoms: _232  and  _233
REMARK   97  A    between atoms: _232  and  _235
REMARK   98  A    between atoms: _235  and  _236
REMARK   99  A    between atoms: _240  and  _241
REMARK  100  A    between atoms: _246  and  _248
REMARK  101  A    between atoms: _248  and  _249
REMARK  102  A    between atoms: _248  and  _251
REMARK  103  A    between atoms: _254  and  _256
REMARK  104  A    between atoms: _256  and  _257
REMARK  105  A    between atoms: _256  and  _259
REMARK  106  A    between atoms: _259  and  _260
REMARK  107  A    between atoms: _265  and  _267
REMARK  108  A    between atoms: _267  and  _268
REMARK  109  A    between atoms: _267  and  _270
REMARK  110  A    between atoms: _270  and  _271
REMARK  111  A    between atoms: _274  and  _276
REMARK  112  A    between atoms: _276  and  _277
REMARK  113  A    between atoms: _276  and  _279
REMARK  114  A    between atoms: _279  and  _280
REMARK  115  A    between atoms: _283  and  _285
REMARK  116  A    between atoms: _285  and  _286
REMARK  117  A    between atoms: _288  and  _290
REMARK  118  A    between atoms: _290  and  _291
REMARK  119  A    between atoms: _290  and  _293
REMARK  120  A    between atoms: _293  and  _294
REMARK  121  A    between atoms: _294  and  _295
REMARK  122  A    between atoms: _295  and  _296
REMARK  123  A    between atoms: _305  and  _307
REMARK  124  A    between atoms: _307  and  _308
REMARK  125  A    between atoms: _307  and  _310
REMARK  126  A    between atoms: _310  and  _311
REMARK  127  A    between atoms: _316  and  _318
REMARK  128  A    between atoms: _318  and  _319
REMARK  129  A    between atoms: _318  and  _321
REMARK  130  A    between atoms: _321  and  _322
REMARK  131  A    between atoms: _322  and  _323
REMARK  132  A    between atoms: _323  and  _324
REMARK  133  A    between atoms: _334  and  _335
REMARK  134  A    between atoms: _340  and  _342
REMARK  135  A    between atoms: _342  and  _343
REMARK  136  A    between atoms: _342  and  _345
REMARK  137  A    between atoms: _345  and  _346
REMARK  138  A    between atoms: _349  and  _351
REMARK  139  A    between atoms: _351  and  _352
REMARK  140  A    between atoms: _351  and  _354
REMARK  141  A    between atoms: _354  and  _355
REMARK  142  A    between atoms: _358  and  _360
REMARK  143  A    between atoms: _360  and  _361
REMARK  144  A    between atoms: _360  and  _363
REMARK  145  A    between atoms: _363  and  _364
REMARK  146  A    between atoms: _367  and  _369
REMARK  147  A    between atoms: _369  and  _370
REMARK  148  A    between atoms: _369  and  _372
REMARK  149  A    between atoms: _372  and  _373
REMARK  150  A    between atoms: _376  and  _378
REMARK  151  A    between atoms: _378  and  _379
REMARK  152  A    between atoms: _378  and  _381
REMARK  153  A    between atoms: _381  and  _382
REMARK  154  A    between atoms: _385  and  _387
REMARK  155  A    between atoms: _387  and  _388
REMARK  156  A    between atoms: _390  and  _392
REMARK  157  A    between atoms: _392  and  _393
REMARK  158  A    between atoms: _396  and  _398
REMARK  159  A    between atoms: _398  and  _399
REMARK  160  A    between atoms: _398  and  _401
REMARK  161  A    between atoms: _401  and  _402
REMARK  162  A    between atoms: _405  and  _407
REMARK  163  A    between atoms: _407  and  _408
REMARK  164  A    between atoms: _407  and  _410
REMARK  165  A    between atoms: _410  and  _411
REMARK  166  A    between atoms: _414  and  _416
REMARK  167  A    between atoms: _416  and  _417
REMARK  168  A    between atoms: _416  and  _419
REMARK  169  A    between atoms: _419  and  _420
REMARK  170  A    between atoms: _423  and  _425
REMARK  171  A    between atoms: _425  and  _426
REMARK  172  A    between atoms: _425  and  _428
REMARK  173  A    between atoms: _431  and  _433
REMARK  174  A    between atoms: _433  and  _434
REMARK  175  A    between atoms: _433  and  _436
REMARK  176  A    between atoms: _436  and  _437
REMARK  177  A    between atoms: _440  and  _442
REMARK  178  A    between atoms: _442  and  _443
REMARK  179  A    between atoms: _442  and  _445
REMARK  180  A    between atoms: _445  and  _446
REMARK  181  A    between atoms: _446  and  _447
REMARK  182  A    between atoms: _447  and  _448
REMARK  183  A    between atoms: _448  and  _449
REMARK  184  A    between atoms: _453  and  _455
REMARK  185  A    between atoms: _455  and  _456
REMARK  186  A    between atoms: _455  and  _458
REMARK  187  A    between atoms: _458  and  _459
REMARK  188  A    between atoms: _459  and  _460
REMARK  189  A    between atoms: _462  and  _464
REMARK  190  A    between atoms: _464  and  _465
REMARK  191  A    between atoms: _464  and  _467
REMARK  192  A    between atoms: _467  and  _468
REMARK  193  A    between atoms: _471  and  _473
REMARK  194  A    between atoms: _473  and  _474
REMARK  195  A    between atoms: _476  and  _478
REMARK  196  A    between atoms: _478  and  _479
REMARK  197  A    between atoms: _481  and  _483
REMARK  198  A    between atoms: _483  and  _484
REMARK  199  A    between atoms: _483  and  _486
REMARK  200  A    between atoms: _486  and  _487
REMARK  201  A    between atoms: _490  and  _492
REMARK  202  A    between atoms: _492  and  _493
REMARK  203  A    between atoms: _495  and  _497
REMARK  204  A    between atoms: _497  and  _498
REMARK  205  A    between atoms: _500  and  _502
REMARK  206  A    between atoms: _502  and  _503
REMARK  207  A    between atoms: _502  and  _505
REMARK  208  A    between atoms: _505  and  _506
REMARK  209  A    between atoms: _512  and  _514
REMARK  210  A    between atoms: _514  and  _515
REMARK  211  A    between atoms: _514  and  _517
REMARK  212  A    between atoms: _517  and  _518
REMARK  213  A    between atoms: _521  and  _523
REMARK  214  A    between atoms: _523  and  _524
REMARK  215  A    between atoms: _523  and  _526
REMARK  216  A    between atoms: _529  and  _531
REMARK  217  A    between atoms: _531  and  _532
REMARK  218  A    between atoms: _531  and  _534
REMARK  219  A    between atoms: _534  and  _535
REMARK  220  A    between atoms: _539  and  _540
REMARK  221  A    between atoms: _545  and  _547
REMARK  222  A    between atoms: _547  and  _548
REMARK  223  A    between atoms: _547  and  _550
REMARK  224  A    between atoms: _550  and  _551
REMARK  225  A    between atoms: _555  and  _556
REMARK  226  A    between atoms: _561  and  _563
REMARK  227  A    between atoms: _563  and  _564
REMARK  228  A    between atoms: _563  and  _566
REMARK  229  A    between atoms: _569  and  _571
REMARK  230  A    between atoms: _571  and  _572
REMARK  231  A    between atoms: _571  and  _574
REMARK  232  A    between atoms: _574  and  _575
REMARK  233  A    between atoms: _580  and  _582
REMARK  234  A    between atoms: _582  and  _583
REMARK  235  A    between atoms: _582  and  _585
REMARK  236  A    between atoms: _585  and  _586
REMARK  237  A    between atoms: _589  and  _591
REMARK  238  A    between atoms: _591  and  _592
REMARK  239  A    between atoms: _591  and  _594
REMARK  240  A    between atoms: _594  and  _595
REMARK  241  A    between atoms: _598  and  _600
REMARK  242  A    between atoms: _600  and  _601
REMARK  243  A    between atoms: _603  and  _605
REMARK  244  A    between atoms: _605  and  _606
REMARK  245  A    between atoms: _605  and  _608
REMARK  246  A    between atoms: _608  and  _609
REMARK  247  A    between atoms: _609  and  _610
REMARK  248  A    between atoms: _610  and  _611
REMARK  249  A    between atoms: _620  and  _622
REMARK  250  A    between atoms: _622  and  _623
REMARK  251  A    between atoms: _622  and  _625
REMARK  252  A    between atoms: _625  and  _626
REMARK                            x       y       z     vdW  Elec       q    Type
REMARK                         _______ _______ _______ _____ _____    ______ ____
ROOT
ATOM      1  C   GLY A   5      12.446  18.585   9.346  0.00  0.00    +0.243 C 
ATOM      2  O   GLY A   5      12.442  17.864  10.351  0.00  0.00    -0.273 OA
ATOM      3  N   ILE A   6      11.859  19.770   9.304  0.00  0.00    -0.297 N 
ATOM      4  H   ILE A   6      11.859  20.303   8.411  0.00  0.00    +0.150 HD
ENDROOT
BRANCH   3   5
ATOM      5  CA  ILE A   6      11.215  20.346  10.469  0.00  0.00    +0.149 C 
BRANCH   5   6
ATOM      6  C   ILE A   6      10.137  19.463  11.098  0.00  0.00    +0.241 C 
ATOM      7  O   ILE A   6       9.950  19.495  12.313  0.00  0.00    -0.273 OA
ATOM      8  N   GLY A   7       9.440  18.669  10.286  0.00  0.00    -0.295 N 
ATOM      9  H   GLY A   7       9.649  18.652   9.267  0.00  0.00    +0.150 HD
BRANCH   8  10
ATOM     10  CA  GLY A   7       8.384  17.825  10.829  0.00  0.00    +0.176 C 
BRANCH  10  11
ATOM     11  C   GLY A   7       8.636  16.326  10.894  0.00  0.00    +0.243 C 
ATOM     12  O   GLY A   7       7.724  15.554  11.187  0.00  0.00    -0.273 OA
ATOM     13  N   GLY A   8       9.864  15.904  10.635  0.00  0.00    -0.295 N 
ATOM     14  H   GLY A   8      10.612  16.589  10.405  0.00  0.00    +0.150 HD
BRANCH  13  15
ATOM     15  CA  GLY A   8      10.165  14.484  10.672  0.00  0.00    +0.176 C 
BRANCH  15  16
ATOM     16  C   GLY A   8      10.893  14.064   9.412  0.00  0.00    +0.243 C 
ATOM     17  N   PHE A   9      10.890  12.767   9.112  0.00  0.00    -0.297 N 
ATOM     18  H   PHE A   9      10.387  12.102   9.734  0.00  0.00    +0.150 HD
ATOM     19  O   GLY A   8      11.439  14.910   8.711  0.00  0.00    -0.273 OA
BRANCH  17  20
ATOM     20  CA  PHE A   9      11.578  12.259   7.928  0.00  0.00    +0.153 C 
BRANCH  20  21
ATOM     21  C   PHE A   9      10.659  11.751   6.825  0.00  0.00    +0.241 C 
ATOM     22  O   PHE A   9       9.487  11.445   7.049  0.00  0.00    -0.273 OA
ATOM     23  N   ILE A  10      11.213  11.666   5.622  0.00  0.00    -0.298 N 
ATOM     24  H   ILE A  10      12.197  11.979   5.499  0.00  0.00    +0.150 HD
BRANCH  23  25
ATOM     25  CA  ILE A  10      10.490  11.150   4.471  0.00  0.00    +0.137 C 
BRANCH  25  26
ATOM     26  C   ILE A  10      11.490  10.335   3.666  0.00  0.00    +0.227 C 
ATOM     27  O   ILE A  10      12.691  10.618   3.684  0.00  0.00    -0.286 OA
ENDBRANCH  25  26
BRANCH  25  28
ATOM     28  CB  ILE A  10       9.911  12.271   3.565  0.00  0.00    +0.026 C 
ATOM     29  CG2 ILE A  10       8.874  13.076   4.331  0.00  0.00    +0.002 C 
BRANCH  28  30
ATOM     30  CG1 ILE A  10      11.034  13.169   3.041  0.00  0.00    +0.002 C 
ATOM     31  CD1 ILE A  10      10.584  14.134   1.951  0.00  0.00    +0.000 C 
ENDBRANCH  28  30
ENDBRANCH  25  28
ENDBRANCH  23  25
ENDBRANCH  20  21
BRANCH  20  32
ATOM     32  CB  PHE A   9      12.528  11.117   8.307  0.00  0.00    +0.055 C 
BRANCH  32  33
ATOM     33  CG  PHE A   9      13.614  11.511   9.264  0.00  0.00    -0.020 A 
ATOM     34  CD2 PHE A   9      13.325  11.782  10.597  0.00  0.00    -0.004 A 
ATOM     35  CE2 PHE A   9      14.337  12.130  11.489  0.00  0.00    -0.000 A 
ATOM     36  CZ  PHE A   9      15.653  12.210  11.049  0.00  0.00    -0.000 A 
ATOM     37  CE1 PHE A   9      15.953  11.943   9.718  0.00  0.00    -0.000 A 
ATOM     38  CD1 PHE A   9      14.933  11.596   8.834  0.00  0.00    -0.004 A 
ENDBRANCH  32  33
ENDBRANCH  20  32
ENDBRANCH  17  20
ENDBRANCH  15  16
ENDBRANCH  13  15
ENDBRANCH  10  11
ENDBRANCH   8  10
ENDBRANCH   5   6
BRANCH   5  39
ATOM     39  CB  ILE A   6      10.621  21.723  10.116  0.00  0.00    +0.027 C 
ATOM     40  CG2 ILE A   6       9.166  21.583   9.715  0.00  0.00    +0.002 C 
BRANCH  39  41
ATOM     41  CG1 ILE A   6      10.764  22.666  11.305  0.00  0.00    +0.002 C 
ATOM     42  CD1 ILE A   6      10.397  24.092  10.982  0.00  0.00    +0.000 C 
ENDBRANCH  39  41
ENDBRANCH   5  39
ENDBRANCH   3   5
BRANCH   1  43
ATOM     43  CA  GLY A   5      13.102  18.143   8.057  0.00  0.00    +0.176 C 
BRANCH  43  45
ATOM     44  C   GLY A   4      14.612  16.276   7.877  0.00  0.00    +0.243 C 
ATOM     45  N   GLY A   5      13.384  16.726   8.086  0.00  0.00    -0.295 N 
ATOM     46  H   GLY A   5      12.614  16.052   8.273  0.00  0.00    +0.150 HD
ATOM     47  O   GLY A   4      15.564  17.013   7.637  0.00  0.00    -0.273 OA
BRANCH  44  48
ATOM     48  CA  GLY A   4      14.775  14.774   7.946  0.00  0.00    +0.176 C 
BRANCH  48  50
ATOM     49  C   ILE A   3      15.027  13.526   5.898  0.00  0.00    +0.241 C 
ATOM     50  N   GLY A   4      15.582  14.241   6.868  0.00  0.00    -0.295 N 
ATOM     51  H   GLY A   4      16.606  14.420   6.854  0.00  0.00    +0.150 HD
ATOM     52  O   ILE A   3      13.824  13.269   5.846  0.00  0.00    -0.273 OA
BRANCH  49  53
ATOM     53  CA  ILE A   3      15.978  13.010   4.834  0.00  0.00    +0.149 C 
BRANCH  53  56
ATOM     54  C   MET A   2      16.514  10.674   4.570  0.00  0.00    +0.241 C 
ATOM     55  O   MET A   2      17.695  10.883   4.848  0.00  0.00    -0.273 OA
ATOM     56  N   ILE A   3      15.609  11.642   4.509  0.00  0.00    -0.297 N 
ATOM     57  H   ILE A   3      14.632  11.421   4.228  0.00  0.00    +0.150 HD
BRANCH  54  58
ATOM     58  CA  MET A   2      16.040   9.268   4.250  0.00  0.00    +0.149 C 
BRANCH  58  60
ATOM     59  C   LYS A   1      16.615   8.342   2.063  0.00  0.00    +0.238 C 
ATOM     60  N   MET A   2      16.974   8.722   3.283  0.00  0.00    -0.297 N 
ATOM     61  H   MET A   2      17.972   8.624   3.559  0.00  0.00    +0.150 HD
ATOM     62  O   LYS A   1      15.458   8.392   1.642  0.00  0.00    -0.274 OA
BRANCH  59  63
ATOM     63  CA  LYS A   1      17.738   7.802   1.198  0.00  0.00    +0.145 C 
BRANCH  63  64
ATOM     64  N   LYS A   1      17.210   6.810   0.273  0.00  0.00    -0.238 NA
ATOM     65  H   LYS A   1      16.215   6.868  -0.025  0.00  0.00    +0.142 HD
ENDBRANCH  63  64
BRANCH  63  66
ATOM     66  CB  LYS A   1      18.428   8.963   0.474  0.00  0.00    +0.026 C 
BRANCH  66  67
ATOM     67  CG  LYS A   1      19.171   9.872   1.463  0.00  0.00    -0.000 C 
BRANCH  67  68
ATOM     68  CD  LYS A   1      19.971  10.978   0.809  0.00  0.00    -0.024 C 
BRANCH  68  69
ATOM     69  CE  LYS A   1      20.811  11.703   1.861  0.00  0.00    -0.086 C 
BRANCH  69  70
ATOM     70  NZ  LYS A   1      21.596  12.830   1.291  0.00  0.00    +0.380 N 
ATOM     71  HZ1 LYS A   1      22.146  13.285   2.047  0.00  0.00    -0.089 HD
ATOM     72  HZ2 LYS A   1      20.947  13.523   0.867  0.00  0.00    -0.089 HD
ATOM     73  HZ3 LYS A   1      22.242  12.467   0.561  0.00  0.00    -0.089 HD
ENDBRANCH  69  70
ENDBRANCH  68  69
ENDBRANCH  67  68
ENDBRANCH  66  67
ENDBRANCH  63  66
ENDBRANCH  59  63
ENDBRANCH  58  60
BRANCH  58  74
ATOM     74  CB  MET A   2      16.066   8.441   5.538  0.00  0.00    +0.041 C 
BRANCH  74  75
ATOM     75  CG  MET A   2      15.568   7.019   5.395  0.00  0.00    +0.060 C 
BRANCH  75  76
ATOM     76  SD  MET A   2      13.777   6.943   5.416  0.00  0.00    -0.139 S 
ATOM     77  CE  MET A   2      13.488   6.911   7.181  0.00  0.00    +0.069 C 
ENDBRANCH  75  76
ENDBRANCH  74  75
ENDBRANCH  58  74
ENDBRANCH  54  58
ENDBRANCH  53  56
BRANCH  53  78
ATOM     78  CB  ILE A   3      15.929  13.937   3.603  0.00  0.00    +0.027 C 
ATOM     79  CG2 ILE A   3      17.054  13.571   2.638  0.00  0.00    +0.002 C 
BRANCH  78  80
ATOM     80  CG1 ILE A   3      14.564  13.848   2.925  0.00  0.00    +0.002 C 
ATOM     81  CD1 ILE A   3      14.421  14.780   1.732  0.00  0.00    +0.000 C 
ENDBRANCH  78  80
ENDBRANCH  53  78
ENDBRANCH  49  53
ENDBRANCH  48  50
ENDBRANCH  44  48
ENDBRANCH  43  45
ENDBRANCH   1  43
TORSDOF 36
REMARK  Name = ../refined-set-2016/1w5y/1w5y_pocket.pdb
REMARK  252 active torsions:
REMARK  status: ('A' for Active; 'I' for Inactive)
REMARK    1  A    between atoms: _1  and  _3
REMARK    2  A    between atoms: _3  and  _4
REMARK    3  A    between atoms: _3  and  _6
REMARK    4  A    between atoms: _6  and  _7
REMARK    5  A    between atoms: _7  and  _8
REMARK    6  A    between atoms: _8  and  _9
REMARK    7  A    between atoms: _19  and  _20
REMARK    8  A    between atoms: _25  and  _27
REMARK    9  A    between atoms: _27  and  _28
REMARK   10  A    between atoms: _27  and  _30
REMARK   11  A    between atoms: _30  and  _31
REMARK   12  A    between atoms: _34  and  _36
REMARK   13  A    between atoms: _36  and  _37
REMARK   14  A    between atoms: _36  and  _39
REMARK   15  A    between atoms: _39  and  _40
REMARK   16  A    between atoms: _43  and  _45
REMARK   17  A    between atoms: _45  and  _46
REMARK   18  A    between atoms: _45  and  _48
REMARK   19  A    between atoms: _48  and  _49
REMARK   20  A    between atoms: _52  and  _54
REMARK   21  A    between atoms: _54  and  _55
REMARK   22  A    between atoms: _54  and  _57
REMARK   23  A    between atoms: _57  and  _58
REMARK   24  A    between atoms: _61  and  _63
REMARK   25  A    between atoms: _63  and  _64
REMARK   26  A    between atoms: _63  and  _66
REMARK   27  A    between atoms: _66  and  _67
REMARK   28  A    between atoms: _70  and  _72
REMARK   29  A    between atoms: _72  and  _73
REMARK   30  A    between atoms: _75  and  _77
REMARK   31  A    between atoms: _77  and  _78
REMARK   32  A    between atoms: _81  and  _83
REMARK   33  A    between atoms: _83  and  _84
REMARK   34  A    between atoms: _83  and  _86
REMARK   35  A    between atoms: _86  and  _87
REMARK   36  A    between atoms: _90  and  _92
REMARK   37  A    between atoms: _92  and  _93
REMARK   38  A    between atoms: _92  and  _95
REMARK   39  A    between atoms: _95  and  _96
REMARK   40  A    between atoms: _99  and  _101
REMARK   41  A    between atoms: _101  and  _102
REMARK   42  A    between atoms: _101  and  _104
REMARK   43  A    between atoms: _104  and  _105
REMARK   44  A    between atoms: _108  and  _110
REMARK   45  A    between atoms: _110  and  _111
REMARK   46  A    between atoms: _110  and  _113
REMARK   47  A    between atoms: _116  and  _118
REMARK   48  A    between atoms: _118  and  _119
REMARK   49  A    between atoms: _118  and  _121
REMARK   50  A    between atoms: _121  and  _122
REMARK   51  A    between atoms: _125  and  _127
REMARK   52  A    between atoms: _127  and  _128
REMARK   53  A    between atoms: _127  and  _130
REMARK   54  A    between atoms: _130  and  _131
REMARK   55  A    between atoms: _131  and  _132
REMARK   56  A    between atoms: _132  and  _133
REMARK   57  A    between atoms: _133  and  _134
REMARK   58  A    between atoms: _138  and  _140
REMARK   59  A    between atoms: _140  and  _141
REMARK   60  A    between atoms: _140  and  _143
REMARK   61  A    between atoms: _143  and  _144
REMARK   62  A    between atoms: _144  and  _145
REMARK   63  A    between atoms: _147  and  _149
REMARK   64  A    between atoms: _149  and  _150
REMARK   65  A    between atoms: _149  and  _152
REMARK   66  A    between atoms: _152  and  _153
REMARK   67  A    between atoms: _156  and  _158
REMARK   68  A    between atoms: _158  and  _159
REMARK   69  A    between atoms: _161  and  _163
REMARK   70  A    between atoms: _163  and  _164
REMARK   71  A    between atoms: _166  and  _168
REMARK   72  A    between atoms: _168  and  _169
REMARK   73  A    between atoms: _168  and  _171
REMARK   74  A    between atoms: _171  and  _172
REMARK   75  A    between atoms: _175  and  _177
REMARK   76  A    between atoms: _177  and  _178
REMARK   77  A    between atoms: _180  and  _182
REMARK   78  A    between atoms: _182  and  _183
REMARK   79  A    between atoms: _185  and  _187
REMARK   80  A    between atoms: _187  and  _188
REMARK   81  A    between atoms: _187  and  _190
REMARK   82  A    between atoms: _190  and  _191
REMARK   83  A    between atoms: _197  and  _199
REMARK   84  A    between atoms: _199  and  _200
REMARK   85  A    between atoms: _199  and  _202
REMARK   86  A    between atoms: _202  and  _203
REMARK   87  A    between atoms: _206  and  _208
REMARK   88  A    between atoms: _208  and  _209
REMARK   89  A    between atoms: _208  and  _211
REMARK   90  A    between atoms: _214  and  _216
REMARK   91  A    between atoms: _216  and  _217
REMARK   92  A    between atoms: _216  and  _219
REMARK   93  A    between atoms: _219  and  _220
REMARK   94  A    between atoms: _224  and  _225
REMARK   95  A    between atoms: _230  and  _232
REMARK   96  A    between atoms: _232  and  _233
REMARK   97  A    between atoms: _232  and  _235
REMARK   98  A    between atoms: _235  and  _236
REMARK   99  A    between atoms: _240  and  _241
REMARK  100  A    between atoms: _246  and  _248
REMARK  101  A    between atoms: _248  and  _249
REMARK  102  A    between atoms: _248  and  _251
REMARK  103  A    between atoms: _254  and  _256
REMARK  104  A    between atoms: _256  and  _257
REMARK  105  A    between atoms: _256  and  _259
REMARK  106  A    between atoms: _259  and  _260
REMARK  107  A    between atoms: _265  and  _267
REMARK  108  A    between atoms: _267  and  _268
REMARK  109  A    between atoms: _267  and  _270
REMARK  110  A    between atoms: _270  and  _271
REMARK  111  A    between atoms: _274  and  _276
REMARK  112  A    between atoms: _276  and  _277
REMARK  113  A    between atoms: _276  and  _279
REMARK  114  A    between atoms: _279  and  _280
REMARK  115  A    between atoms: _283  and  _285
REMARK  116  A    between atoms: _285  and  _286
REMARK  117  A    between atoms: _288  and  _290
REMARK  118  A    between atoms: _290  and  _291
REMARK  119  A    between atoms: _290  and  _293
REMARK  120  A    between atoms: _293  and  _294
REMARK  121  A    between atoms: _294  and  _295
REMARK  122  A    between atoms: _295  and  _296
REMARK  123  A    between atoms: _305  and  _307
REMARK  124  A    between atoms: _307  and  _308
REMARK  125  A    between atoms: _307  and  _310
REMARK  126  A    between atoms: _310  and  _311
REMARK  127  A    between atoms: _316  and  _318
REMARK  128  A    between atoms: _318  and  _319
REMARK  129  A    between atoms: _318  and  _321
REMARK  130  A    between atoms: _321  and  _322
REMARK  131  A    between atoms: _322  and  _323
REMARK  132  A    between atoms: _323  and  _324
REMARK  133  A    between atoms: _334  and  _335
REMARK  134  A    between atoms: _340  and  _342
REMARK  135  A    between atoms: _342  and  _343
REMARK  136  A    between atoms: _342  and  _345
REMARK  137  A    between atoms: _345  and  _346
REMARK  138  A    between atoms: _349  and  _351
REMARK  139  A    between atoms: _351  and  _352
REMARK  140  A    between atoms: _351  and  _354
REMARK  141  A    between atoms: _354  and  _355
REMARK  142  A    between atoms: _358  and  _360
REMARK  143  A    between atoms: _360  and  _361
REMARK  144  A    between atoms: _360  and  _363
REMARK  145  A    between atoms: _363  and  _364
REMARK  146  A    between atoms: _367  and  _369
REMARK  147  A    between atoms: _369  and  _370
REMARK  148  A    between atoms: _369  and  _372
REMARK  149  A    between atoms: _372  and  _373
REMARK  150  A    between atoms: _376  and  _378
REMARK  151  A    between atoms: _378  and  _379
REMARK  152  A    between atoms: _378  and  _381
REMARK  153  A    between atoms: _381  and  _382
REMARK  154  A    between atoms: _385  and  _387
REMARK  155  A    between atoms: _387  and  _388
REMARK  156  A    between atoms: _390  and  _392
REMARK  157  A    between atoms: _392  and  _393
REMARK  158  A    between atoms: _396  and  _398
REMARK  159  A    between atoms: _398  and  _399
REMARK  160  A    between atoms: _398  and  _401
REMARK  161  A    between atoms: _401  and  _402
REMARK  162  A    between atoms: _405  and  _407
REMARK  163  A    between atoms: _407  and  _408
REMARK  164  A    between atoms: _407  and  _410
REMARK  165  A    between atoms: _410  and  _411
REMARK  166  A    between atoms: _414  and  _416
REMARK  167  A    between atoms: _416  and  _417
REMARK  168  A    between atoms: _416  and  _419
REMARK  169  A    between atoms: _419  and  _420
REMARK  170  A    between atoms: _423  and  _425
REMARK  171  A    between atoms: _425  and  _426
REMARK  172  A    between atoms: _425  and  _428
REMARK  173  A    between atoms: _431  and  _433
REMARK  174  A    between atoms: _433  and  _434
REMARK  175  A    between atoms: _433  and  _436
REMARK  176  A    between atoms: _436  and  _437
REMARK  177  A    between atoms: _440  and  _442
REMARK  178  A    between atoms: _442  and  _443
REMARK  179  A    between atoms: _442  and  _445
REMARK  180  A    between atoms: _445  and  _446
REMARK  181  A    between atoms: _446  and  _447
REMARK  182  A    between atoms: _447  and  _448
REMARK  183  A    between atoms: _448  and  _449
REMARK  184  A    between atoms: _453  and  _455
REMARK  185  A    between atoms: _455  and  _456
REMARK  186  A    between atoms: _455  and  _458
REMARK  187  A    between atoms: _458  and  _459
REMARK  188  A    between atoms: _459  and  _460
REMARK  189  A    between atoms: _462  and  _464
REMARK  190  A    between atoms: _464  and  _465
REMARK  191  A    between atoms: _464  and  _467
REMARK  192  A    between atoms: _467  and  _468
REMARK  193  A    between atoms: _471  and  _473
REMARK  194  A    between atoms: _473  and  _474
REMARK  195  A    between atoms: _476  and  _478
REMARK  196  A    between atoms: _478  and  _479
REMARK  197  A    between atoms: _481  and  _483
REMARK  198  A    between atoms: _483  and  _484
REMARK  199  A    between atoms: _483  and  _486
REMARK  200  A    between atoms: _486  and  _487
REMARK  201  A    between atoms: _490  and  _492
REMARK  202  A    between atoms: _492  and  _493
REMARK  203  A    between atoms: _495  and  _497
REMARK  204  A    between atoms: _497  and  _498
REMARK  205  A    between atoms: _500  and  _502
REMARK  206  A    between atoms: _502  and  _503
REMARK  207  A    between atoms: _502  and  _505
REMARK  208  A    between atoms: _505  and  _506
REMARK  209  A    between atoms: _512  and  _514
REMARK  210  A    between atoms: _514  and  _515
REMARK  211  A    between atoms: _514  and  _517
REMARK  212  A    between atoms: _517  and  _518
REMARK  213  A    between atoms: _521  and  _523
REMARK  214  A    between atoms: _523  and  _524
REMARK  215  A    between atoms: _523  and  _526
REMARK  216  A    between atoms: _529  and  _531
REMARK  217  A    between atoms: _531  and  _532
REMARK  218  A    between atoms: _531  and  _534
REMARK  219  A    between atoms: _534  and  _535
REMARK  220  A    between atoms: _539  and  _540
REMARK  221  A    between atoms: _545  and  _547
REMARK  222  A    between atoms: _547  and  _548
REMARK  223  A    between atoms: _547  and  _550
REMARK  224  A    between atoms: _550  and  _551
REMARK  225  A    between atoms: _555  and  _556
REMARK  226  A    between atoms: _561  and  _563
REMARK  227  A    between atoms: _563  and  _564
REMARK  228  A    between atoms: _563  and  _566
REMARK  229  A    between atoms: _569  and  _571
REMARK  230  A    between atoms: _571  and  _572
REMARK  231  A    between atoms: _571  and  _574
REMARK  232  A    between atoms: _574  and  _575
REMARK  233  A    between atoms: _580  and  _582
REMARK  234  A    between atoms: _582  and  _583
REMARK  235  A    between atoms: _582  and  _585
REMARK  236  A    between atoms: _585  and  _586
REMARK  237  A    between atoms: _589  and  _591
REMARK  238  A    between atoms: _591  and  _592
REMARK  239  A    between atoms: _591  and  _594
REMARK  240  A    between atoms: _594  and  _595
REMARK  241  A    between atoms: _598  and  _600
REMARK  242  A    between atoms: _600  and  _601
REMARK  243  A    between atoms: _603  and  _605
REMARK  244  A    between atoms: _605  and  _606
REMARK  245  A    between atoms: _605  and  _608
REMARK  246  A    between atoms: _608  and  _609
REMARK  247  A    between atoms: _609  and  _610
REMARK  248  A    between atoms: _610  and  _611
REMARK  249  A    between atoms: _620  and  _622
REMARK  250  A    between atoms: _622  and  _623
REMARK  251  A    between atoms: _622  and  _625
REMARK  252  A    between atoms: _625  and  _626
REMARK                            x       y       z     vdW  Elec       q    Type
REMARK                         _______ _______ _______ _____ _____    ______ ____
ROOT
ATOM      1  CA  VAL A   1      13.124   9.614  -1.202  0.00  0.00    +0.133 C 
ENDROOT
BRANCH   1   2
ATOM      2  CB  VAL A   1      13.741  11.029  -1.192  0.00  0.00    +0.023 C 
ATOM      3  CG2 VAL A   1      12.811  11.994  -0.462  0.00  0.00    +0.002 C 
ATOM      4  CG1 VAL A   1      15.117  10.995  -0.514  0.00  0.00    +0.002 C 
ENDBRANCH   1   2
BRANCH   1   5
ATOM      5  N   VAL A   1      13.014   9.091   0.145  0.00  0.00    -0.239 NA
ATOM      6  H   VAL A   1      13.868   8.762   0.639  0.00  0.00    +0.142 HD
ENDBRANCH   1   5
BRANCH   1   7
ATOM      7  C   VAL A   1      13.991   8.707  -2.061  0.00  0.00    +0.224 C 
ATOM      8  O   VAL A   1      14.696   7.832  -1.548  0.00  0.00    -0.287 OA
ENDBRANCH   1   7
TORSDOF 3
REMARK  Name = ../refined-set-2016/1w5y/1w5y_pocket.pdb
REMARK  252 active torsions:
REMARK  status: ('A' for Active; 'I' for Inactive)
REMARK    1  A    between atoms: _1  and  _3
REMARK    2  A    between atoms: _3  and  _4
REMARK    3  A    between atoms: _3  and  _6
REMARK    4  A    between atoms: _6  and  _7
REMARK    5  A    between atoms: _7  and  _8
REMARK    6  A    between atoms: _8  and  _9
REMARK    7  A    between atoms: _19  and  _20
REMARK    8  A    between atoms: _25  and  _27
REMARK    9  A    between atoms: _27  and  _28
REMARK   10  A    between atoms: _27  and  _30
REMARK   11  A    between atoms: _30  and  _31
REMARK   12  A    between atoms: _34  and  _36
REMARK   13  A    between atoms: _36  and  _37
REMARK   14  A    between atoms: _36  and  _39
REMARK   15  A    between atoms: _39  and  _40
REMARK   16  A    between atoms: _43  and  _45
REMARK   17  A    between atoms: _45  and  _46
REMARK   18  A    between atoms: _45  and  _48
REMARK   19  A    between atoms: _48  and  _49
REMARK   20  A    between atoms: _52  and  _54
REMARK   21  A    between atoms: _54  and  _55
REMARK   22  A    between atoms: _54  and  _57
REMARK   23  A    between atoms: _57  and  _58
REMARK   24  A    between atoms: _61  and  _63
REMARK   25  A    between atoms: _63  and  _64
REMARK   26  A    between atoms: _63  and  _66
REMARK   27  A    between atoms: _66  and  _67
REMARK   28  A    between atoms: _70  and  _72
REMARK   29  A    between atoms: _72  and  _73
REMARK   30  A    between atoms: _75  and  _77
REMARK   31  A    between atoms: _77  and  _78
REMARK   32  A    between atoms: _81  and  _83
REMARK   33  A    between atoms: _83  and  _84
REMARK   34  A    between atoms: _83  and  _86
REMARK   35  A    between atoms: _86  and  _87
REMARK   36  A    between atoms: _90  and  _92
REMARK   37  A    between atoms: _92  and  _93
REMARK   38  A    between atoms: _92  and  _95
REMARK   39  A    between atoms: _95  and  _96
REMARK   40  A    between atoms: _99  and  _101
REMARK   41  A    between atoms: _101  and  _102
REMARK   42  A    between atoms: _101  and  _104
REMARK   43  A    between atoms: _104  and  _105
REMARK   44  A    between atoms: _108  and  _110
REMARK   45  A    between atoms: _110  and  _111
REMARK   46  A    between atoms: _110  and  _113
REMARK   47  A    between atoms: _116  and  _118
REMARK   48  A    between atoms: _118  and  _119
REMARK   49  A    between atoms: _118  and  _121
REMARK   50  A    between atoms: _121  and  _122
REMARK   51  A    between atoms: _125  and  _127
REMARK   52  A    between atoms: _127  and  _128
REMARK   53  A    between atoms: _127  and  _130
REMARK   54  A    between atoms: _130  and  _131
REMARK   55  A    between atoms: _131  and  _132
REMARK   56  A    between atoms: _132  and  _133
REMARK   57  A    between atoms: _133  and  _134
REMARK   58  A    between atoms: _138  and  _140
REMARK   59  A    between atoms: _140  and  _141
REMARK   60  A    between atoms: _140  and  _143
REMARK   61  A    between atoms: _143  and  _144
REMARK   62  A    between atoms: _144  and  _145
REMARK   63  A    between atoms: _147  and  _149
REMARK   64  A    between atoms: _149  and  _150
REMARK   65  A    between atoms: _149  and  _152
REMARK   66  A    between atoms: _152  and  _153
REMARK   67  A    between atoms: _156  and  _158
REMARK   68  A    between atoms: _158  and  _159
REMARK   69  A    between atoms: _161  and  _163
REMARK   70  A    between atoms: _163  and  _164
REMARK   71  A    between atoms: _166  and  _168
REMARK   72  A    between atoms: _168  and  _169
REMARK   73  A    between atoms: _168  and  _171
REMARK   74  A    between atoms: _171  and  _172
REMARK   75  A    between atoms: _175  and  _177
REMARK   76  A    between atoms: _177  and  _178
REMARK   77  A    between atoms: _180  and  _182
REMARK   78  A    between atoms: _182  and  _183
REMARK   79  A    between atoms: _185  and  _187
REMARK   80  A    between atoms: _187  and  _188
REMARK   81  A    between atoms: _187  and  _190
REMARK   82  A    between atoms: _190  and  _191
REMARK   83  A    between atoms: _197  and  _199
REMARK   84  A    between atoms: _199  and  _200
REMARK   85  A    between atoms: _199  and  _202
REMARK   86  A    between atoms: _202  and  _203
REMARK   87  A    between atoms: _206  and  _208
REMARK   88  A    between atoms: _208  and  _209
REMARK   89  A    between atoms: _208  and  _211
REMARK   90  A    between atoms: _214  and  _216
REMARK   91  A    between atoms: _216  and  _217
REMARK   92  A    between atoms: _216  and  _219
REMARK   93  A    between atoms: _219  and  _220
REMARK   94  A    between atoms: _224  and  _225
REMARK   95  A    between atoms: _230  and  _232
REMARK   96  A    between atoms: _232  and  _233
REMARK   97  A    between atoms: _232  and  _235
REMARK   98  A    between atoms: _235  and  _236
REMARK   99  A    between atoms: _240  and  _241
REMARK  100  A    between atoms: _246  and  _248
REMARK  101  A    between atoms: _248  and  _249
REMARK  102  A    between atoms: _248  and  _251
REMARK  103  A    between atoms: _254  and  _256
REMARK  104  A    between atoms: _256  and  _257
REMARK  105  A    between atoms: _256  and  _259
REMARK  106  A    between atoms: _259  and  _260
REMARK  107  A    between atoms: _265  and  _267
REMARK  108  A    between atoms: _267  and  _268
REMARK  109  A    between atoms: _267  and  _270
REMARK  110  A    between atoms: _270  and  _271
REMARK  111  A    between atoms: _274  and  _276
REMARK  112  A    between atoms: _276  and  _277
REMARK  113  A    between atoms: _276  and  _279
REMARK  114  A    between atoms: _279  and  _280
REMARK  115  A    between atoms: _283  and  _285
REMARK  116  A    between atoms: _285  and  _286
REMARK  117  A    between atoms: _288  and  _290
REMARK  118  A    between atoms: _290  and  _291
REMARK  119  A    between atoms: _290  and  _293
REMARK  120  A    between atoms: _293  and  _294
REMARK  121  A    between atoms: _294  and  _295
REMARK  122  A    between atoms: _295  and  _296
REMARK  123  A    between atoms: _305  and  _307
REMARK  124  A    between atoms: _307  and  _308
REMARK  125  A    between atoms: _307  and  _310
REMARK  126  A    between atoms: _310  and  _311
REMARK  127  A    between atoms: _316  and  _318
REMARK  128  A    between atoms: _318  and  _319
REMARK  129  A    between atoms: _318  and  _321
REMARK  130  A    between atoms: _321  and  _322
REMARK  131  A    between atoms: _322  and  _323
REMARK  132  A    between atoms: _323  and  _324
REMARK  133  A    between atoms: _334  and  _335
REMARK  134  A    between atoms: _340  and  _342
REMARK  135  A    between atoms: _342  and  _343
REMARK  136  A    between atoms: _342  and  _345
REMARK  137  A    between atoms: _345  and  _346
REMARK  138  A    between atoms: _349  and  _351
REMARK  139  A    between atoms: _351  and  _352
REMARK  140  A    between atoms: _351  and  _354
REMARK  141  A    between atoms: _354  and  _355
REMARK  142  A    between atoms: _358  and  _360
REMARK  143  A    between atoms: _360  and  _361
REMARK  144  A    between atoms: _360  and  _363
REMARK  145  A    between atoms: _363  and  _364
REMARK  146  A    between atoms: _367  and  _369
REMARK  147  A    between atoms: _369  and  _370
REMARK  148  A    between atoms: _369  and  _372
REMARK  149  A    between atoms: _372  and  _373
REMARK  150  A    between atoms: _376  and  _378
REMARK  151  A    between atoms: _378  and  _379
REMARK  152  A    between atoms: _378  and  _381
REMARK  153  A    between atoms: _381  and  _382
REMARK  154  A    between atoms: _385  and  _387
REMARK  155  A    between atoms: _387  and  _388
REMARK  156  A    between atoms: _390  and  _392
REMARK  157  A    between atoms: _392  and  _393
REMARK  158  A    between atoms: _396  and  _398
REMARK  159  A    between atoms: _398  and  _399
REMARK  160  A    between atoms: _398  and  _401
REMARK  161  A    between atoms: _401  and  _402
REMARK  162  A    between atoms: _405  and  _407
REMARK  163  A    between atoms: _407  and  _408
REMARK  164  A    between atoms: _407  and  _410
REMARK  165  A    between atoms: _410  and  _411
REMARK  166  A    between atoms: _414  and  _416
REMARK  167  A    between atoms: _416  and  _417
REMARK  168  A    between atoms: _416  and  _419
REMARK  169  A    between atoms: _419  and  _420
REMARK  170  A    between atoms: _423  and  _425
REMARK  171  A    between atoms: _425  and  _426
REMARK  172  A    between atoms: _425  and  _428
REMARK  173  A    between atoms: _431  and  _433
REMARK  174  A    between atoms: _433  and  _434
REMARK  175  A    between atoms: _433  and  _436
REMARK  176  A    between atoms: _436  and  _437
REMARK  177  A    between atoms: _440  and  _442
REMARK  178  A    between atoms: _442  and  _443
REMARK  179  A    between atoms: _442  and  _445
REMARK  180  A    between atoms: _445  and  _446
REMARK  181  A    between atoms: _446  and  _447
REMARK  182  A    between atoms: _447  and  _448
REMARK  183  A    between atoms: _448  and  _449
REMARK  184  A    between atoms: _453  and  _455
REMARK  185  A    between atoms: _455  and  _456
REMARK  186  A    between atoms: _455  and  _458
REMARK  187  A    between atoms: _458  and  _459
REMARK  188  A    between atoms: _459  and  _460
REMARK  189  A    between atoms: _462  and  _464
REMARK  190  A    between atoms: _464  and  _465
REMARK  191  A    between atoms: _464  and  _467
REMARK  192  A    between atoms: _467  and  _468
REMARK  193  A    between atoms: _471  and  _473
REMARK  194  A    between atoms: _473  and  _474
REMARK  195  A    between atoms: _476  and  _478
REMARK  196  A    between atoms: _478  and  _479
REMARK  197  A    between atoms: _481  and  _483
REMARK  198  A    between atoms: _483  and  _484
REMARK  199  A    between atoms: _483  and  _486
REMARK  200  A    between atoms: _486  and  _487
REMARK  201  A    between atoms: _490  and  _492
REMARK  202  A    between atoms: _492  and  _493
REMARK  203  A    between atoms: _495  and  _497
REMARK  204  A    between atoms: _497  and  _498
REMARK  205  A    between atoms: _500  and  _502
REMARK  206  A    between atoms: _502  and  _503
REMARK  207  A    between atoms: _502  and  _505
REMARK  208  A    between atoms: _505  and  _506
REMARK  209  A    between atoms: _512  and  _514
REMARK  210  A    between atoms: _514  and  _515
REMARK  211  A    between atoms: _514  and  _517
REMARK  212  A    between atoms: _517  and  _518
REMARK  213  A    between atoms: _521  and  _523
REMARK  214  A    between atoms: _523  and  _524
REMARK  215  A    between atoms: _523  and  _526
REMARK  216  A    between atoms: _529  and  _531
REMARK  217  A    between atoms: _531  and  _532
REMARK  218  A    between atoms: _531  and  _534
REMARK  219  A    between atoms: _534  and  _535
REMARK  220  A    between atoms: _539  and  _540
REMARK  221  A    between atoms: _545  and  _547
REMARK  222  A    between atoms: _547  and  _548
REMARK  223  A    between atoms: _547  and  _550
REMARK  224  A    between atoms: _550  and  _551
REMARK  225  A    between atoms: _555  and  _556
REMARK  226  A    between atoms: _561  and  _563
REMARK  227  A    between atoms: _563  and  _564
REMARK  228  A    between atoms: _563  and  _566
REMARK  229  A    between atoms: _569  and  _571
REMARK  230  A    between atoms: _571  and  _572
REMARK  231  A    between atoms: _571  and  _574
REMARK  232  A    between atoms: _574  and  _575
REMARK  233  A    between atoms: _580  and  _582
REMARK  234  A    between atoms: _582  and  _583
REMARK  235  A    between atoms: _582  and  _585
REMARK  236  A    between atoms: _585  and  _586
REMARK  237  A    between atoms: _589  and  _591
REMARK  238  A    between atoms: _591  and  _592
REMARK  239  A    between atoms: _591  and  _594
REMARK  240  A    between atoms: _594  and  _595
REMARK  241  A    between atoms: _598  and  _600
REMARK  242  A    between atoms: _600  and  _601
REMARK  243  A    between atoms: _603  and  _605
REMARK  244  A    between atoms: _605  and  _606
REMARK  245  A    between atoms: _605  and  _608
REMARK  246  A    between atoms: _608  and  _609
REMARK  247  A    between atoms: _609  and  _610
REMARK  248  A    between atoms: _610  and  _611
REMARK  249  A    between atoms: _620  and  _622
REMARK  250  A    between atoms: _622  and  _623
REMARK  251  A    between atoms: _622  and  _625
REMARK  252  A    between atoms: _625  and  _626
REMARK                            x       y       z     vdW  Elec       q    Type
REMARK                         _______ _______ _______ _____ _____    ______ ____
ROOT
ATOM      1  CA  LEU A   1      16.321  13.351  -4.792  0.00  0.00    +0.133 C 
ENDROOT
BRANCH   1   2
ATOM      2  N   LEU A   1      17.186  14.252  -5.543  0.00  0.00    -0.239 NA
ATOM      3  H   LEU A   1      17.240  15.254  -5.269  0.00  0.00    +0.142 HD
ENDBRANCH   1   2
BRANCH   1   4
ATOM      4  C   LEU A   1      14.882  13.589  -5.249  0.00  0.00    +0.224 C 
ATOM      5  O   LEU A   1      14.509  14.714  -5.584  0.00  0.00    -0.287 OA
ENDBRANCH   1   4
BRANCH   1   6
ATOM      6  CB  LEU A   1      16.449  13.626  -3.297  0.00  0.00    +0.025 C 
BRANCH   6   7
ATOM      7  CG  LEU A   1      17.879  13.685  -2.760  0.00  0.00    +0.002 C 
ATOM      8  CD2 LEU A   1      17.833  14.010  -1.273  0.00  0.00    +0.000 C 
ATOM      9  CD1 LEU A   1      18.601  12.358  -3.013  0.00  0.00    +0.000 C 
ENDBRANCH   6   7
ENDBRANCH   1   6
TORSDOF 4
REMARK  Name = ../refined-set-2016/1w5y/1w5y_pocket.pdb
REMARK  252 active torsions:
REMARK  status: ('A' for Active; 'I' for Inactive)
REMARK    1  A    between atoms: _1  and  _3
REMARK    2  A    between atoms: _3  and  _4
REMARK    3  A    between atoms: _3  and  _6
REMARK    4  A    between atoms: _6  and  _7
REMARK    5  A    between atoms: _7  and  _8
REMARK    6  A    between atoms: _8  and  _9
REMARK    7  A    between atoms: _19  and  _20
REMARK    8  A    between atoms: _25  and  _27
REMARK    9  A    between atoms: _27  and  _28
REMARK   10  A    between atoms: _27  and  _30
REMARK   11  A    between atoms: _30  and  _31
REMARK   12  A    between atoms: _34  and  _36
REMARK   13  A    between atoms: _36  and  _37
REMARK   14  A    between atoms: _36  and  _39
REMARK   15  A    between atoms: _39  and  _40
REMARK   16  A    between atoms: _43  and  _45
REMARK   17  A    between atoms: _45  and  _46
REMARK   18  A    between atoms: _45  and  _48
REMARK   19  A    between atoms: _48  and  _49
REMARK   20  A    between atoms: _52  and  _54
REMARK   21  A    between atoms: _54  and  _55
REMARK   22  A    between atoms: _54  and  _57
REMARK   23  A    between atoms: _57  and  _58
REMARK   24  A    between atoms: _61  and  _63
REMARK   25  A    between atoms: _63  and  _64
REMARK   26  A    between atoms: _63  and  _66
REMARK   27  A    between atoms: _66  and  _67
REMARK   28  A    between atoms: _70  and  _72
REMARK   29  A    between atoms: _72  and  _73
REMARK   30  A    between atoms: _75  and  _77
REMARK   31  A    between atoms: _77  and  _78
REMARK   32  A    between atoms: _81  and  _83
REMARK   33  A    between atoms: _83  and  _84
REMARK   34  A    between atoms: _83  and  _86
REMARK   35  A    between atoms: _86  and  _87
REMARK   36  A    between atoms: _90  and  _92
REMARK   37  A    between atoms: _92  and  _93
REMARK   38  A    between atoms: _92  and  _95
REMARK   39  A    between atoms: _95  and  _96
REMARK   40  A    between atoms: _99  and  _101
REMARK   41  A    between atoms: _101  and  _102
REMARK   42  A    between atoms: _101  and  _104
REMARK   43  A    between atoms: _104  and  _105
REMARK   44  A    between atoms: _108  and  _110
REMARK   45  A    between atoms: _110  and  _111
REMARK   46  A    between atoms: _110  and  _113
REMARK   47  A    between atoms: _116  and  _118
REMARK   48  A    between atoms: _118  and  _119
REMARK   49  A    between atoms: _118  and  _121
REMARK   50  A    between atoms: _121  and  _122
REMARK   51  A    between atoms: _125  and  _127
REMARK   52  A    between atoms: _127  and  _128
REMARK   53  A    between atoms: _127  and  _130
REMARK   54  A    between atoms: _130  and  _131
REMARK   55  A    between atoms: _131  and  _132
REMARK   56  A    between atoms: _132  and  _133
REMARK   57  A    between atoms: _133  and  _134
REMARK   58  A    between atoms: _138  and  _140
REMARK   59  A    between atoms: _140  and  _141
REMARK   60  A    between atoms: _140  and  _143
REMARK   61  A    between atoms: _143  and  _144
REMARK   62  A    between atoms: _144  and  _145
REMARK   63  A    between atoms: _147  and  _149
REMARK   64  A    between atoms: _149  and  _150
REMARK   65  A    between atoms: _149  and  _152
REMARK   66  A    between atoms: _152  and  _153
REMARK   67  A    between atoms: _156  and  _158
REMARK   68  A    between atoms: _158  and  _159
REMARK   69  A    between atoms: _161  and  _163
REMARK   70  A    between atoms: _163  and  _164
REMARK   71  A    between atoms: _166  and  _168
REMARK   72  A    between atoms: _168  and  _169
REMARK   73  A    between atoms: _168  and  _171
REMARK   74  A    between atoms: _171  and  _172
REMARK   75  A    between atoms: _175  and  _177
REMARK   76  A    between atoms: _177  and  _178
REMARK   77  A    between atoms: _180  and  _182
REMARK   78  A    between atoms: _182  and  _183
REMARK   79  A    between atoms: _185  and  _187
REMARK   80  A    between atoms: _187  and  _188
REMARK   81  A    between atoms: _187  and  _190
REMARK   82  A    between atoms: _190  and  _191
REMARK   83  A    between atoms: _197  and  _199
REMARK   84  A    between atoms: _199  and  _200
REMARK   85  A    between atoms: _199  and  _202
REMARK   86  A    between atoms: _202  and  _203
REMARK   87  A    between atoms: _206  and  _208
REMARK   88  A    between atoms: _208  and  _209
REMARK   89  A    between atoms: _208  and  _211
REMARK   90  A    between atoms: _214  and  _216
REMARK   91  A    between atoms: _216  and  _217
REMARK   92  A    between atoms: _216  and  _219
REMARK   93  A    between atoms: _219  and  _220
REMARK   94  A    between atoms: _224  and  _225
REMARK   95  A    between atoms: _230  and  _232
REMARK   96  A    between atoms: _232  and  _233
REMARK   97  A    between atoms: _232  and  _235
REMARK   98  A    between atoms: _235  and  _236
REMARK   99  A    between atoms: _240  and  _241
REMARK  100  A    between atoms: _246  and  _248
REMARK  101  A    between atoms: _248  and  _249
REMARK  102  A    between atoms: _248  and  _251
REMARK  103  A    between atoms: _254  and  _256
REMARK  104  A    between atoms: _256  and  _257
REMARK  105  A    between atoms: _256  and  _259
REMARK  106  A    between atoms: _259  and  _260
REMARK  107  A    between atoms: _265  and  _267
REMARK  108  A    between atoms: _267  and  _268
REMARK  109  A    between atoms: _267  and  _270
REMARK  110  A    between atoms: _270  and  _271
REMARK  111  A    between atoms: _274  and  _276
REMARK  112  A    between atoms: _276  and  _277
REMARK  113  A    between atoms: _276  and  _279
REMARK  114  A    between atoms: _279  and  _280
REMARK  115  A    between atoms: _283  and  _285
REMARK  116  A    between atoms: _285  and  _286
REMARK  117  A    between atoms: _288  and  _290
REMARK  118  A    between atoms: _290  and  _291
REMARK  119  A    between atoms: _290  and  _293
REMARK  120  A    between atoms: _293  and  _294
REMARK  121  A    between atoms: _294  and  _295
REMARK  122  A    between atoms: _295  and  _296
REMARK  123  A    between atoms: _305  and  _307
REMARK  124  A    between atoms: _307  and  _308
REMARK  125  A    between atoms: _307  and  _310
REMARK  126  A    between atoms: _310  and  _311
REMARK  127  A    between atoms: _316  and  _318
REMARK  128  A    between atoms: _318  and  _319
REMARK  129  A    between atoms: _318  and  _321
REMARK  130  A    between atoms: _321  and  _322
REMARK  131  A    between atoms: _322  and  _323
REMARK  132  A    between atoms: _323  and  _324
REMARK  133  A    between atoms: _334  and  _335
REMARK  134  A    between atoms: _340  and  _342
REMARK  135  A    between atoms: _342  and  _343
REMARK  136  A    between atoms: _342  and  _345
REMARK  137  A    between atoms: _345  and  _346
REMARK  138  A    between atoms: _349  and  _351
REMARK  139  A    between atoms: _351  and  _352
REMARK  140  A    between atoms: _351  and  _354
REMARK  141  A    between atoms: _354  and  _355
REMARK  142  A    between atoms: _358  and  _360
REMARK  143  A    between atoms: _360  and  _361
REMARK  144  A    between atoms: _360  and  _363
REMARK  145  A    between atoms: _363  and  _364
REMARK  146  A    between atoms: _367  and  _369
REMARK  147  A    between atoms: _369  and  _370
REMARK  148  A    between atoms: _369  and  _372
REMARK  149  A    between atoms: _372  and  _373
REMARK  150  A    between atoms: _376  and  _378
REMARK  151  A    between atoms: _378  and  _379
REMARK  152  A    between atoms: _378  and  _381
REMARK  153  A    between atoms: _381  and  _382
REMARK  154  A    between atoms: _385  and  _387
REMARK  155  A    between atoms: _387  and  _388
REMARK  156  A    between atoms: _390  and  _392
REMARK  157  A    between atoms: _392  and  _393
REMARK  158  A    between atoms: _396  and  _398
REMARK  159  A    between atoms: _398  and  _399
REMARK  160  A    between atoms: _398  and  _401
REMARK  161  A    between atoms: _401  and  _402
REMARK  162  A    between atoms: _405  and  _407
REMARK  163  A    between atoms: _407  and  _408
REMARK  164  A    between atoms: _407  and  _410
REMARK  165  A    between atoms: _410  and  _411
REMARK  166  A    between atoms: _414  and  _416
REMARK  167  A    between atoms: _416  and  _417
REMARK  168  A    between atoms: _416  and  _419
REMARK  169  A    between atoms: _419  and  _420
REMARK  170  A    between atoms: _423  and  _425
REMARK  171  A    between atoms: _425  and  _426
REMARK  172  A    between atoms: _425  and  _428
REMARK  173  A    between atoms: _431  and  _433
REMARK  174  A    between atoms: _433  and  _434
REMARK  175  A    between atoms: _433  and  _436
REMARK  176  A    between atoms: _436  and  _437
REMARK  177  A    between atoms: _440  and  _442
REMARK  178  A    between atoms: _442  and  _443
REMARK  179  A    between atoms: _442  and  _445
REMARK  180  A    between atoms: _445  and  _446
REMARK  181  A    between atoms: _446  and  _447
REMARK  182  A    between atoms: _447  and  _448
REMARK  183  A    between atoms: _448  and  _449
REMARK  184  A    between atoms: _453  and  _455
REMARK  185  A    between atoms: _455  and  _456
REMARK  186  A    between atoms: _455  and  _458
REMARK  187  A    between atoms: _458  and  _459
REMARK  188  A    between atoms: _459  and  _460
REMARK  189  A    between atoms: _462  and  _464
REMARK  190  A    between atoms: _464  and  _465
REMARK  191  A    between atoms: _464  and  _467
REMARK  192  A    between atoms: _467  and  _468
REMARK  193  A    between atoms: _471  and  _473
REMARK  194  A    between atoms: _473  and  _474
REMARK  195  A    between atoms: _476  and  _478
REMARK  196  A    between atoms: _478  and  _479
REMARK  197  A    between atoms: _481  and  _483
REMARK  198  A    between atoms: _483  and  _484
REMARK  199  A    between atoms: _483  and  _486
REMARK  200  A    between atoms: _486  and  _487
REMARK  201  A    between atoms: _490  and  _492
REMARK  202  A    between atoms: _492  and  _493
REMARK  203  A    between atoms: _495  and  _497
REMARK  204  A    between atoms: _497  and  _498
REMARK  205  A    between atoms: _500  and  _502
REMARK  206  A    between atoms: _502  and  _503
REMARK  207  A    between atoms: _502  and  _505
REMARK  208  A    between atoms: _505  and  _506
REMARK  209  A    between atoms: _512  and  _514
REMARK  210  A    between atoms: _514  and  _515
REMARK  211  A    between atoms: _514  and  _517
REMARK  212  A    between atoms: _517  and  _518
REMARK  213  A    between atoms: _521  and  _523
REMARK  214  A    between atoms: _523  and  _524
REMARK  215  A    between atoms: _523  and  _526
REMARK  216  A    between atoms: _529  and  _531
REMARK  217  A    between atoms: _531  and  _532
REMARK  218  A    between atoms: _531  and  _534
REMARK  219  A    between atoms: _534  and  _535
REMARK  220  A    between atoms: _539  and  _540
REMARK  221  A    between atoms: _545  and  _547
REMARK  222  A    between atoms: _547  and  _548
REMARK  223  A    between atoms: _547  and  _550
REMARK  224  A    between atoms: _550  and  _551
REMARK  225  A    between atoms: _555  and  _556
REMARK  226  A    between atoms: _561  and  _563
REMARK  227  A    between atoms: _563  and  _564
REMARK  228  A    between atoms: _563  and  _566
REMARK  229  A    between atoms: _569  and  _571
REMARK  230  A    between atoms: _571  and  _572
REMARK  231  A    between atoms: _571  and  _574
REMARK  232  A    between atoms: _574  and  _575
REMARK  233  A    between atoms: _580  and  _582
REMARK  234  A    between atoms: _582  and  _583
REMARK  235  A    between atoms: _582  and  _585
REMARK  236  A    between atoms: _585  and  _586
REMARK  237  A    between atoms: _589  and  _591
REMARK  238  A    between atoms: _591  and  _592
REMARK  239  A    between atoms: _591  and  _594
REMARK  240  A    between atoms: _594  and  _595
REMARK  241  A    between atoms: _598  and  _600
REMARK  242  A    between atoms: _600  and  _601
REMARK  243  A    between atoms: _603  and  _605
REMARK  244  A    between atoms: _605  and  _606
REMARK  245  A    between atoms: _605  and  _608
REMARK  246  A    between atoms: _608  and  _609
REMARK  247  A    between atoms: _609  and  _610
REMARK  248  A    between atoms: _610  and  _611
REMARK  249  A    between atoms: _620  and  _622
REMARK  250  A    between atoms: _622  and  _623
REMARK  251  A    between atoms: _622  and  _625
REMARK  252  A    between atoms: _625  and  _626
REMARK                            x       y       z     vdW  Elec       q    Type
REMARK                         _______ _______ _______ _____ _____    ______ ____
ROOT
ATOM      1  CA  ILE A   6      13.894  22.393  -3.407  0.00  0.00    +0.149 C 
ENDROOT
BRANCH   1   2
ATOM      2  C   ILE A   6      15.286  22.240  -4.027  0.00  0.00    +0.241 C 
ATOM      3  N   ILE A   7      15.970  23.362  -4.241  0.00  0.00    -0.297 N 
ATOM      4  H   ILE A   7      15.519  24.274  -4.027  0.00  0.00    +0.150 HD
ATOM      5  O   ILE A   6      15.719  21.131  -4.306  0.00  0.00    -0.273 OA
BRANCH   3   6
ATOM      6  CA  ILE A   7      17.333  23.354  -4.767  0.00  0.00    +0.149 C 
BRANCH   6   7
ATOM      7  C   ILE A   7      18.209  23.556  -3.526  0.00  0.00    +0.241 C 
ATOM      8  O   ILE A   7      18.192  24.630  -2.911  0.00  0.00    -0.273 OA
ATOM      9  N   GLY A   8      18.953  22.516  -3.157  0.00  0.00    -0.295 N 
ATOM     10  H   GLY A   8      18.942  21.651  -3.734  0.00  0.00    +0.150 HD
BRANCH   9  11
ATOM     11  CA  GLY A   8      19.782  22.566  -1.962  0.00  0.00    +0.176 C 
BRANCH  11  12
ATOM     12  C   GLY A   8      21.223  22.986  -2.162  0.00  0.00    +0.243 C 
ATOM     13  N   ARG A   9      21.992  22.977  -1.079  0.00  0.00    -0.297 N 
ATOM     14  H   ARG A   9      21.596  22.663  -0.170  0.00  0.00    +0.150 HD
ATOM     15  O   GLY A   8      21.642  23.305  -3.271  0.00  0.00    -0.273 OA
BRANCH  13  16
ATOM     16  CA  ARG A   9      23.385  23.402  -1.150  0.00  0.00    +0.149 C 
BRANCH  16  17
ATOM     17  C   ARG A   9      24.248  22.629  -2.140  0.00  0.00    +0.241 C 
ATOM     18  N   ASN A  10      23.939  21.354  -2.366  0.00  0.00    -0.298 N 
ATOM     19  H   ASN A  10      23.126  20.921  -1.884  0.00  0.00    +0.150 HD
ATOM     20  O   ARG A   9      25.186  23.191  -2.711  0.00  0.00    -0.273 OA
BRANCH  18  21
ATOM     21  CA  ASN A  10      24.748  20.564  -3.295  0.00  0.00    +0.146 C 
BRANCH  21  22
ATOM     22  C   ASN A  10      24.765  21.168  -4.698  0.00  0.00    +0.227 C 
ATOM     23  O   ASN A  10      25.770  21.076  -5.406  0.00  0.00    -0.286 OA
ENDBRANCH  21  22
BRANCH  21  24
ATOM     24  CB  ASN A  10      24.260  19.109  -3.351  0.00  0.00    +0.112 C 
BRANCH  24  25
ATOM     25  CG  ASN A  10      22.949  18.953  -4.100  0.00  0.00    +0.222 C 
ATOM     26  OD1 ASN A  10      21.941  19.568  -3.752  0.00  0.00    -0.275 OA
ATOM     27  ND2 ASN A  10      22.959  18.123  -5.138  0.00  0.00    -0.329 N 
ATOM     28 HD21 ASN A  10      23.834  17.624  -5.396  0.00  0.00    +0.145 HD
ATOM     29 HD22 ASN A  10      22.092  17.973  -5.692  0.00  0.00    +0.145 HD
ENDBRANCH  24  25
ENDBRANCH  21  24
ENDBRANCH  18  21
ENDBRANCH  16  17
BRANCH  16  30
ATOM     30  CB  ARG A   9      24.025  23.359   0.246  0.00  0.00    +0.033 C 
BRANCH  30  31
ATOM     31  CG  ARG A   9      23.491  24.432   1.197  0.00  0.00    +0.045 C 
BRANCH  31  32
ATOM     32  CD  ARG A   9      24.326  24.515   2.488  0.00  0.00    +0.174 C 
BRANCH  32  33
ATOM     33  NE  ARG A   9      24.292  23.271   3.257  0.00  0.00    -0.265 N 
ATOM     34  HE  ARG A   9      23.447  23.080   3.832  0.00  0.00    +0.259 HD
ATOM     35  CZ  ARG A   9      25.269  22.368   3.270  0.00  0.00    +0.342 C 
ATOM     36  NH2 ARG A   9      25.131  21.254   3.976  0.00  0.00    -0.292 N 
ATOM     37 HH21 ARG A   9      24.260  21.087   4.519  0.00  0.00    +0.255 HD
ATOM     38 HH22 ARG A   9      25.894  20.547   3.987  0.00  0.00    +0.255 HD
ATOM     39  NH1 ARG A   9      26.372  22.565   2.564  0.00  0.00    -0.292 N 
ATOM     40 HH11 ARG A   9      27.132  21.855   2.578  0.00  0.00    +0.255 HD
ATOM     41 HH12 ARG A   9      26.478  23.429   1.995  0.00  0.00    +0.255 HD
ENDBRANCH  32  33
ENDBRANCH  31  32
ENDBRANCH  30  31
ENDBRANCH  16  30
ENDBRANCH  13  16
ENDBRANCH  11  12
ENDBRANCH   9  11
ENDBRANCH   6   7
BRANCH   6  42
ATOM     42  CB  ILE A   7      17.576  24.513  -5.756  0.00  0.00    +0.027 C 
ATOM     43  CG2 ILE A   7      19.023  24.500  -6.225  0.00  0.00    +0.002 C 
BRANCH  42  44
ATOM     44  CG1 ILE A   7      16.621  24.388  -6.951  0.00  0.00    +0.002 C 
ATOM     45  CD1 ILE A   7      16.763  23.099  -7.743  0.00  0.00    +0.000 C 
ENDBRANCH  42  44
ENDBRANCH   6  42
ENDBRANCH   3   6
ENDBRANCH   1   2
BRANCH   1  47
ATOM     46  C   ASN A   5      11.778  22.412  -4.639  0.00  0.00    +0.241 C 
ATOM     47  N   ILE A   6      12.815  21.737  -4.147  0.00  0.00    -0.297 N 
ATOM     48  H   ILE A   6      12.860  20.708  -4.294  0.00  0.00    +0.150 HD
ATOM     49  O   ASN A   5      11.668  23.631  -4.551  0.00  0.00    -0.273 OA
BRANCH  46  50
ATOM     50  CA  ASN A   5      10.700  21.593  -5.343  0.00  0.00    +0.158 C 
BRANCH  50  53
ATOM     51  C   VAL A   4       9.135  21.570  -3.480  0.00  0.00    +0.241 C 
ATOM     52  O   VAL A   4       9.895  20.894  -2.785  0.00  0.00    -0.273 OA
ATOM     53  N   ASN A   5       9.428  21.944  -4.723  0.00  0.00    -0.297 N 
ATOM     54  H   ASN A   5       8.734  22.499  -5.264  0.00  0.00    +0.150 HD
BRANCH  51  55
ATOM     55  CA  VAL A   4       7.787  22.018  -2.932  0.00  0.00    +0.149 C 
BRANCH  55  57
ATOM     56  C   PRO A   3       6.084  20.874  -1.605  0.00  0.00    +0.241 C 
ATOM     57  N   VAL A   4       7.368  21.125  -1.859  0.00  0.00    -0.297 N 
ATOM     58  H   VAL A   4       8.095  20.669  -1.272  0.00  0.00    +0.150 HD
ATOM     59  O   PRO A   3       5.155  21.382  -2.243  0.00  0.00    -0.273 OA
BRANCH  56  65
ATOM     60  C   THR A   2       7.182  17.977  -1.104  0.00  0.00    +0.246 C 
ATOM     61  N   PRO A   3       6.884  18.949  -0.226  0.00  0.00    -0.272 N 
ATOM     62  CD  PRO A   3       7.393  19.046   1.152  0.00  0.00    +0.094 C 
ATOM     63  CG  PRO A   3       6.218  19.663   1.875  0.00  0.00    +0.024 C 
ATOM     64  CB  PRO A   3       5.730  20.670   0.884  0.00  0.00    +0.031 C 
ATOM     65  CA  PRO A   3       5.807  19.923  -0.448  0.00  0.00    +0.152 C 
ATOM     66  O   THR A   2       6.563  17.838  -2.151  0.00  0.00    -0.273 OA
BRANCH  60  67
ATOM     67  CA  THR A   2       8.323  17.028  -0.755  0.00  0.00    +0.176 C 
BRANCH  67  70
ATOM     68  C   PRO A   1       7.187  14.904  -0.632  0.00  0.00    +0.239 C 
ATOM     69  O   PRO A   1       6.726  15.183   0.474  0.00  0.00    -0.274 OA
ATOM     70  N   THR A   2       7.986  15.726  -1.301  0.00  0.00    -0.295 N 
ATOM     71  H   THR A   2       8.373  15.436  -2.222  0.00  0.00    +0.150 HD
BRANCH  68  76
ATOM     72  N   PRO A   1       8.007  12.799  -1.776  0.00  0.00    -0.210 NA
ATOM     73  CD  PRO A   1       8.192  11.587  -0.958  0.00  0.00    +0.089 C 
ATOM     74  CG  PRO A   1       7.341  11.886   0.263  0.00  0.00    +0.021 C 
ATOM     75  CB  PRO A   1       6.180  12.606  -0.328  0.00  0.00    +0.028 C 
ATOM     76  CA  PRO A   1       6.859  13.574  -1.293  0.00  0.00    +0.149 C 
ENDBRANCH  68  76
ENDBRANCH  67  70
BRANCH  67  77
ATOM     77  CB  THR A   2       9.628  17.574  -1.359  0.00  0.00    +0.137 C 
ATOM     78  CG2 THR A   2       9.544  17.605  -2.882  0.00  0.00    +0.034 C 
BRANCH  77  79
ATOM     79  OG1 THR A   2       9.857  18.896  -0.860  0.00  0.00    -0.382 OA
ATOM     80  HG1 THR A   2       9.100  19.480  -1.117  0.00  0.00    +0.210 HD
ENDBRANCH  77  79
ENDBRANCH  67  77
ENDBRANCH  60  67
ENDBRANCH  56  65
ENDBRANCH  55  57
BRANCH  55  81
ATOM     81  CB  VAL A   4       7.935  23.473  -2.428  0.00  0.00    +0.027 C 
ATOM     82  CG2 VAL A   4       8.869  23.507  -1.221  0.00  0.00    +0.002 C 
ATOM     83  CG1 VAL A   4       6.573  24.039  -2.056  0.00  0.00    +0.002 C 
ENDBRANCH  55  81
ENDBRANCH  51  55
ENDBRANCH  50  53
BRANCH  50  84
ATOM     84  CB  ASN A   5      10.677  21.929  -6.837  0.00  0.00    +0.114 C 
BRANCH  84  85
ATOM     85  CG  ASN A   5       9.771  21.007  -7.631  0.00  0.00    +0.222 C 
ATOM     86  OD1 ASN A   5       9.765  19.796  -7.420  0.00  0.00    -0.275 OA
ATOM     87  ND2 ASN A   5       9.017  21.574  -8.566  0.00  0.00    -0.329 N 
ATOM     88 HD21 ASN A   5       9.054  22.603  -8.710  0.00  0.00    +0.145 HD
ATOM     89 HD22 ASN A   5       8.390  20.989  -9.154  0.00  0.00    +0.145 HD
ENDBRANCH  84  85
ENDBRANCH  50  84
ENDBRANCH  46  50
ENDBRANCH   1  47
BRANCH   1  90
ATOM     90  CB  ILE A   6      13.981  21.827  -1.969  0.00  0.00    +0.027 C 
ATOM     91  CG2 ILE A   6      15.162  22.460  -1.220  0.00  0.00    +0.002 C 
BRANCH  90  92
ATOM     92  CG1 ILE A   6      12.670  22.085  -1.227  0.00  0.00    +0.002 C 
ATOM     93  CD1 ILE A   6      12.501  21.214  -0.014  0.00  0.00    +0.000 C 
ENDBRANCH  90  92
ENDBRANCH   1  90
TORSDOF 33
REMARK  Name = ../refined-set-2016/1w5y/1w5y_pocket.pdb
REMARK  252 active torsions:
REMARK  status: ('A' for Active; 'I' for Inactive)
REMARK    1  A    between atoms: _1  and  _3
REMARK    2  A    between atoms: _3  and  _4
REMARK    3  A    between atoms: _3  and  _6
REMARK    4  A    between atoms: _6  and  _7
REMARK    5  A    between atoms: _7  and  _8
REMARK    6  A    between atoms: _8  and  _9
REMARK    7  A    between atoms: _19  and  _20
REMARK    8  A    between atoms: _25  and  _27
REMARK    9  A    between atoms: _27  and  _28
REMARK   10  A    between atoms: _27  and  _30
REMARK   11  A    between atoms: _30  and  _31
REMARK   12  A    between atoms: _34  and  _36
REMARK   13  A    between atoms: _36  and  _37
REMARK   14  A    between atoms: _36  and  _39
REMARK   15  A    between atoms: _39  and  _40
REMARK   16  A    between atoms: _43  and  _45
REMARK   17  A    between atoms: _45  and  _46
REMARK   18  A    between atoms: _45  and  _48
REMARK   19  A    between atoms: _48  and  _49
REMARK   20  A    between atoms: _52  and  _54
REMARK   21  A    between atoms: _54  and  _55
REMARK   22  A    between atoms: _54  and  _57
REMARK   23  A    between atoms: _57  and  _58
REMARK   24  A    between atoms: _61  and  _63
REMARK   25  A    between atoms: _63  and  _64
REMARK   26  A    between atoms: _63  and  _66
REMARK   27  A    between atoms: _66  and  _67
REMARK   28  A    between atoms: _70  and  _72
REMARK   29  A    between atoms: _72  and  _73
REMARK   30  A    between atoms: _75  and  _77
REMARK   31  A    between atoms: _77  and  _78
REMARK   32  A    between atoms: _81  and  _83
REMARK   33  A    between atoms: _83  and  _84
REMARK   34  A    between atoms: _83  and  _86
REMARK   35  A    between atoms: _86  and  _87
REMARK   36  A    between atoms: _90  and  _92
REMARK   37  A    between atoms: _92  and  _93
REMARK   38  A    between atoms: _92  and  _95
REMARK   39  A    between atoms: _95  and  _96
REMARK   40  A    between atoms: _99  and  _101
REMARK   41  A    between atoms: _101  and  _102
REMARK   42  A    between atoms: _101  and  _104
REMARK   43  A    between atoms: _104  and  _105
REMARK   44  A    between atoms: _108  and  _110
REMARK   45  A    between atoms: _110  and  _111
REMARK   46  A    between atoms: _110  and  _113
REMARK   47  A    between atoms: _116  and  _118
REMARK   48  A    between atoms: _118  and  _119
REMARK   49  A    between atoms: _118  and  _121
REMARK   50  A    between atoms: _121  and  _122
REMARK   51  A    between atoms: _125  and  _127
REMARK   52  A    between atoms: _127  and  _128
REMARK   53  A    between atoms: _127  and  _130
REMARK   54  A    between atoms: _130  and  _131
REMARK   55  A    between atoms: _131  and  _132
REMARK   56  A    between atoms: _132  and  _133
REMARK   57  A    between atoms: _133  and  _134
REMARK   58  A    between atoms: _138  and  _140
REMARK   59  A    between atoms: _140  and  _141
REMARK   60  A    between atoms: _140  and  _143
REMARK   61  A    between atoms: _143  and  _144
REMARK   62  A    between atoms: _144  and  _145
REMARK   63  A    between atoms: _147  and  _149
REMARK   64  A    between atoms: _149  and  _150
REMARK   65  A    between atoms: _149  and  _152
REMARK   66  A    between atoms: _152  and  _153
REMARK   67  A    between atoms: _156  and  _158
REMARK   68  A    between atoms: _158  and  _159
REMARK   69  A    between atoms: _161  and  _163
REMARK   70  A    between atoms: _163  and  _164
REMARK   71  A    between atoms: _166  and  _168
REMARK   72  A    between atoms: _168  and  _169
REMARK   73  A    between atoms: _168  and  _171
REMARK   74  A    between atoms: _171  and  _172
REMARK   75  A    between atoms: _175  and  _177
REMARK   76  A    between atoms: _177  and  _178
REMARK   77  A    between atoms: _180  and  _182
REMARK   78  A    between atoms: _182  and  _183
REMARK   79  A    between atoms: _185  and  _187
REMARK   80  A    between atoms: _187  and  _188
REMARK   81  A    between atoms: _187  and  _190
REMARK   82  A    between atoms: _190  and  _191
REMARK   83  A    between atoms: _197  and  _199
REMARK   84  A    between atoms: _199  and  _200
REMARK   85  A    between atoms: _199  and  _202
REMARK   86  A    between atoms: _202  and  _203
REMARK   87  A    between atoms: _206  and  _208
REMARK   88  A    between atoms: _208  and  _209
REMARK   89  A    between atoms: _208  and  _211
REMARK   90  A    between atoms: _214  and  _216
REMARK   91  A    between atoms: _216  and  _217
REMARK   92  A    between atoms: _216  and  _219
REMARK   93  A    between atoms: _219  and  _220
REMARK   94  A    between atoms: _224  and  _225
REMARK   95  A    between atoms: _230  and  _232
REMARK   96  A    between atoms: _232  and  _233
REMARK   97  A    between atoms: _232  and  _235
REMARK   98  A    between atoms: _235  and  _236
REMARK   99  A    between atoms: _240  and  _241
REMARK  100  A    between atoms: _246  and  _248
REMARK  101  A    between atoms: _248  and  _249
REMARK  102  A    between atoms: _248  and  _251
REMARK  103  A    between atoms: _254  and  _256
REMARK  104  A    between atoms: _256  and  _257
REMARK  105  A    between atoms: _256  and  _259
REMARK  106  A    between atoms: _259  and  _260
REMARK  107  A    between atoms: _265  and  _267
REMARK  108  A    between atoms: _267  and  _268
REMARK  109  A    between atoms: _267  and  _270
REMARK  110  A    between atoms: _270  and  _271
REMARK  111  A    between atoms: _274  and  _276
REMARK  112  A    between atoms: _276  and  _277
REMARK  113  A    between atoms: _276  and  _279
REMARK  114  A    between atoms: _279  and  _280
REMARK  115  A    between atoms: _283  and  _285
REMARK  116  A    between atoms: _285  and  _286
REMARK  117  A    between atoms: _288  and  _290
REMARK  118  A    between atoms: _290  and  _291
REMARK  119  A    between atoms: _290  and  _293
REMARK  120  A    between atoms: _293  and  _294
REMARK  121  A    between atoms: _294  and  _295
REMARK  122  A    between atoms: _295  and  _296
REMARK  123  A    between atoms: _305  and  _307
REMARK  124  A    between atoms: _307  and  _308
REMARK  125  A    between atoms: _307  and  _310
REMARK  126  A    between atoms: _310  and  _311
REMARK  127  A    between atoms: _316  and  _318
REMARK  128  A    between atoms: _318  and  _319
REMARK  129  A    between atoms: _318  and  _321
REMARK  130  A    between atoms: _321  and  _322
REMARK  131  A    between atoms: _322  and  _323
REMARK  132  A    between atoms: _323  and  _324
REMARK  133  A    between atoms: _334  and  _335
REMARK  134  A    between atoms: _340  and  _342
REMARK  135  A    between atoms: _342  and  _343
REMARK  136  A    between atoms: _342  and  _345
REMARK  137  A    between atoms: _345  and  _346
REMARK  138  A    between atoms: _349  and  _351
REMARK  139  A    between atoms: _351  and  _352
REMARK  140  A    between atoms: _351  and  _354
REMARK  141  A    between atoms: _354  and  _355
REMARK  142  A    between atoms: _358  and  _360
REMARK  143  A    between atoms: _360  and  _361
REMARK  144  A    between atoms: _360  and  _363
REMARK  145  A    between atoms: _363  and  _364
REMARK  146  A    between atoms: _367  and  _369
REMARK  147  A    between atoms: _369  and  _370
REMARK  148  A    between atoms: _369  and  _372
REMARK  149  A    between atoms: _372  and  _373
REMARK  150  A    between atoms: _376  and  _378
REMARK  151  A    between atoms: _378  and  _379
REMARK  152  A    between atoms: _378  and  _381
REMARK  153  A    between atoms: _381  and  _382
REMARK  154  A    between atoms: _385  and  _387
REMARK  155  A    between atoms: _387  and  _388
REMARK  156  A    between atoms: _390  and  _392
REMARK  157  A    between atoms: _392  and  _393
REMARK  158  A    between atoms: _396  and  _398
REMARK  159  A    between atoms: _398  and  _399
REMARK  160  A    between atoms: _398  and  _401
REMARK  161  A    between atoms: _401  and  _402
REMARK  162  A    between atoms: _405  and  _407
REMARK  163  A    between atoms: _407  and  _408
REMARK  164  A    between atoms: _407  and  _410
REMARK  165  A    between atoms: _410  and  _411
REMARK  166  A    between atoms: _414  and  _416
REMARK  167  A    between atoms: _416  and  _417
REMARK  168  A    between atoms: _416  and  _419
REMARK  169  A    between atoms: _419  and  _420
REMARK  170  A    between atoms: _423  and  _425
REMARK  171  A    between atoms: _425  and  _426
REMARK  172  A    between atoms: _425  and  _428
REMARK  173  A    between atoms: _431  and  _433
REMARK  174  A    between atoms: _433  and  _434
REMARK  175  A    between atoms: _433  and  _436
REMARK  176  A    between atoms: _436  and  _437
REMARK  177  A    between atoms: _440  and  _442
REMARK  178  A    between atoms: _442  and  _443
REMARK  179  A    between atoms: _442  and  _445
REMARK  180  A    between atoms: _445  and  _446
REMARK  181  A    between atoms: _446  and  _447
REMARK  182  A    between atoms: _447  and  _448
REMARK  183  A    between atoms: _448  and  _449
REMARK  184  A    between atoms: _453  and  _455
REMARK  185  A    between atoms: _455  and  _456
REMARK  186  A    between atoms: _455  and  _458
REMARK  187  A    between atoms: _458  and  _459
REMARK  188  A    between atoms: _459  and  _460
REMARK  189  A    between atoms: _462  and  _464
REMARK  190  A    between atoms: _464  and  _465
REMARK  191  A    between atoms: _464  and  _467
REMARK  192  A    between atoms: _467  and  _468
REMARK  193  A    between atoms: _471  and  _473
REMARK  194  A    between atoms: _473  and  _474
REMARK  195  A    between atoms: _476  and  _478
REMARK  196  A    between atoms: _478  and  _479
REMARK  197  A    between atoms: _481  and  _483
REMARK  198  A    between atoms: _483  and  _484
REMARK  199  A    between atoms: _483  and  _486
REMARK  200  A    between atoms: _486  and  _487
REMARK  201  A    between atoms: _490  and  _492
REMARK  202  A    between atoms: _492  and  _493
REMARK  203  A    between atoms: _495  and  _497
REMARK  204  A    between atoms: _497  and  _498
REMARK  205  A    between atoms: _500  and  _502
REMARK  206  A    between atoms: _502  and  _503
REMARK  207  A    between atoms: _502  and  _505
REMARK  208  A    between atoms: _505  and  _506
REMARK  209  A    between atoms: _512  and  _514
REMARK  210  A    between atoms: _514  and  _515
REMARK  211  A    between atoms: _514  and  _517
REMARK  212  A    between atoms: _517  and  _518
REMARK  213  A    between atoms: _521  and  _523
REMARK  214  A    between atoms: _523  and  _524
REMARK  215  A    between atoms: _523  and  _526
REMARK  216  A    between atoms: _529  and  _531
REMARK  217  A    between atoms: _531  and  _532
REMARK  218  A    between atoms: _531  and  _534
REMARK  219  A    between atoms: _534  and  _535
REMARK  220  A    between atoms: _539  and  _540
REMARK  221  A    between atoms: _545  and  _547
REMARK  222  A    between atoms: _547  and  _548
REMARK  223  A    between atoms: _547  and  _550
REMARK  224  A    between atoms: _550  and  _551
REMARK  225  A    between atoms: _555  and  _556
REMARK  226  A    between atoms: _561  and  _563
REMARK  227  A    between atoms: _563  and  _564
REMARK  228  A    between atoms: _563  and  _566
REMARK  229  A    between atoms: _569  and  _571
REMARK  230  A    between atoms: _571  and  _572
REMARK  231  A    between atoms: _571  and  _574
REMARK  232  A    between atoms: _574  and  _575
REMARK  233  A    between atoms: _580  and  _582
REMARK  234  A    between atoms: _582  and  _583
REMARK  235  A    between atoms: _582  and  _585
REMARK  236  A    between atoms: _585  and  _586
REMARK  237  A    between atoms: _589  and  _591
REMARK  238  A    between atoms: _591  and  _592
REMARK  239  A    between atoms: _591  and  _594
REMARK  240  A    between atoms: _594  and  _595
REMARK  241  A    between atoms: _598  and  _600
REMARK  242  A    between atoms: _600  and  _601
REMARK  243  A    between atoms: _603  and  _605
REMARK  244  A    between atoms: _605  and  _606
REMARK  245  A    between atoms: _605  and  _608
REMARK  246  A    between atoms: _608  and  _609
REMARK  247  A    between atoms: _609  and  _610
REMARK  248  A    between atoms: _610  and  _611
REMARK  249  A    between atoms: _620  and  _622
REMARK  250  A    between atoms: _622  and  _623
REMARK  251  A    between atoms: _622  and  _625
REMARK  252  A    between atoms: _625  and  _626
REMARK                            x       y       z     vdW  Elec       q    Type
REMARK                         _______ _______ _______ _____ _____    ______ ____
ROOT
ATOM      1  O   HOH     1      27.925  21.651   7.223  0.00  0.00    +0.000 OA
ENDROOT
TORSDOF 0
REMARK  Name = ../refined-set-2016/1w5y/1w5y_pocket.pdb
REMARK  252 active torsions:
REMARK  status: ('A' for Active; 'I' for Inactive)
REMARK    1  A    between atoms: _1  and  _3
REMARK    2  A    between atoms: _3  and  _4
REMARK    3  A    between atoms: _3  and  _6
REMARK    4  A    between atoms: _6  and  _7
REMARK    5  A    between atoms: _7  and  _8
REMARK    6  A    between atoms: _8  and  _9
REMARK    7  A    between atoms: _19  and  _20
REMARK    8  A    between atoms: _25  and  _27
REMARK    9  A    between atoms: _27  and  _28
REMARK   10  A    between atoms: _27  and  _30
REMARK   11  A    between atoms: _30  and  _31
REMARK   12  A    between atoms: _34  and  _36
REMARK   13  A    between atoms: _36  and  _37
REMARK   14  A    between atoms: _36  and  _39
REMARK   15  A    between atoms: _39  and  _40
REMARK   16  A    between atoms: _43  and  _45
REMARK   17  A    between atoms: _45  and  _46
REMARK   18  A    between atoms: _45  and  _48
REMARK   19  A    between atoms: _48  and  _49
REMARK   20  A    between atoms: _52  and  _54
REMARK   21  A    between atoms: _54  and  _55
REMARK   22  A    between atoms: _54  and  _57
REMARK   23  A    between atoms: _57  and  _58
REMARK   24  A    between atoms: _61  and  _63
REMARK   25  A    between atoms: _63  and  _64
REMARK   26  A    between atoms: _63  and  _66
REMARK   27  A    between atoms: _66  and  _67
REMARK   28  A    between atoms: _70  and  _72
REMARK   29  A    between atoms: _72  and  _73
REMARK   30  A    between atoms: _75  and  _77
REMARK   31  A    between atoms: _77  and  _78
REMARK   32  A    between atoms: _81  and  _83
REMARK   33  A    between atoms: _83  and  _84
REMARK   34  A    between atoms: _83  and  _86
REMARK   35  A    between atoms: _86  and  _87
REMARK   36  A    between atoms: _90  and  _92
REMARK   37  A    between atoms: _92  and  _93
REMARK   38  A    between atoms: _92  and  _95
REMARK   39  A    between atoms: _95  and  _96
REMARK   40  A    between atoms: _99  and  _101
REMARK   41  A    between atoms: _101  and  _102
REMARK   42  A    between atoms: _101  and  _104
REMARK   43  A    between atoms: _104  and  _105
REMARK   44  A    between atoms: _108  and  _110
REMARK   45  A    between atoms: _110  and  _111
REMARK   46  A    between atoms: _110  and  _113
REMARK   47  A    between atoms: _116  and  _118
REMARK   48  A    between atoms: _118  and  _119
REMARK   49  A    between atoms: _118  and  _121
REMARK   50  A    between atoms: _121  and  _122
REMARK   51  A    between atoms: _125  and  _127
REMARK   52  A    between atoms: _127  and  _128
REMARK   53  A    between atoms: _127  and  _130
REMARK   54  A    between atoms: _130  and  _131
REMARK   55  A    between atoms: _131  and  _132
REMARK   56  A    between atoms: _132  and  _133
REMARK   57  A    between atoms: _133  and  _134
REMARK   58  A    between atoms: _138  and  _140
REMARK   59  A    between atoms: _140  and  _141
REMARK   60  A    between atoms: _140  and  _143
REMARK   61  A    between atoms: _143  and  _144
REMARK   62  A    between atoms: _144  and  _145
REMARK   63  A    between atoms: _147  and  _149
REMARK   64  A    between atoms: _149  and  _150
REMARK   65  A    between atoms: _149  and  _152
REMARK   66  A    between atoms: _152  and  _153
REMARK   67  A    between atoms: _156  and  _158
REMARK   68  A    between atoms: _158  and  _159
REMARK   69  A    between atoms: _161  and  _163
REMARK   70  A    between atoms: _163  and  _164
REMARK   71  A    between atoms: _166  and  _168
REMARK   72  A    between atoms: _168  and  _169
REMARK   73  A    between atoms: _168  and  _171
REMARK   74  A    between atoms: _171  and  _172
REMARK   75  A    between atoms: _175  and  _177
REMARK   76  A    between atoms: _177  and  _178
REMARK   77  A    between atoms: _180  and  _182
REMARK   78  A    between atoms: _182  and  _183
REMARK   79  A    between atoms: _185  and  _187
REMARK   80  A    between atoms: _187  and  _188
REMARK   81  A    between atoms: _187  and  _190
REMARK   82  A    between atoms: _190  and  _191
REMARK   83  A    between atoms: _197  and  _199
REMARK   84  A    between atoms: _199  and  _200
REMARK   85  A    between atoms: _199  and  _202
REMARK   86  A    between atoms: _202  and  _203
REMARK   87  A    between atoms: _206  and  _208
REMARK   88  A    between atoms: _208  and  _209
REMARK   89  A    between atoms: _208  and  _211
REMARK   90  A    between atoms: _214  and  _216
REMARK   91  A    between atoms: _216  and  _217
REMARK   92  A    between atoms: _216  and  _219
REMARK   93  A    between atoms: _219  and  _220
REMARK   94  A    between atoms: _224  and  _225
REMARK   95  A    between atoms: _230  and  _232
REMARK   96  A    between atoms: _232  and  _233
REMARK   97  A    between atoms: _232  and  _235
REMARK   98  A    between atoms: _235  and  _236
REMARK   99  A    between atoms: _240  and  _241
REMARK  100  A    between atoms: _246  and  _248
REMARK  101  A    between atoms: _248  and  _249
REMARK  102  A    between atoms: _248  and  _251
REMARK  103  A    between atoms: _254  and  _256
REMARK  104  A    between atoms: _256  and  _257
REMARK  105  A    between atoms: _256  and  _259
REMARK  106  A    between atoms: _259  and  _260
REMARK  107  A    between atoms: _265  and  _267
REMARK  108  A    between atoms: _267  and  _268
REMARK  109  A    between atoms: _267  and  _270
REMARK  110  A    between atoms: _270  and  _271
REMARK  111  A    between atoms: _274  and  _276
REMARK  112  A    between atoms: _276  and  _277
REMARK  113  A    between atoms: _276  and  _279
REMARK  114  A    between atoms: _279  and  _280
REMARK  115  A    between atoms: _283  and  _285
REMARK  116  A    between atoms: _285  and  _286
REMARK  117  A    between atoms: _288  and  _290
REMARK  118  A    between atoms: _290  and  _291
REMARK  119  A    between atoms: _290  and  _293
REMARK  120  A    between atoms: _293  and  _294
REMARK  121  A    between atoms: _294  and  _295
REMARK  122  A    between atoms: _295  and  _296
REMARK  123  A    between atoms: _305  and  _307
REMARK  124  A    between atoms: _307  and  _308
REMARK  125  A    between atoms: _307  and  _310
REMARK  126  A    between atoms: _310  and  _311
REMARK  127  A    between atoms: _316  and  _318
REMARK  128  A    between atoms: _318  and  _319
REMARK  129  A    between atoms: _318  and  _321
REMARK  130  A    between atoms: _321  and  _322
REMARK  131  A    between atoms: _322  and  _323
REMARK  132  A    between atoms: _323  and  _324
REMARK  133  A    between atoms: _334  and  _335
REMARK  134  A    between atoms: _340  and  _342
REMARK  135  A    between atoms: _342  and  _343
REMARK  136  A    between atoms: _342  and  _345
REMARK  137  A    between atoms: _345  and  _346
REMARK  138  A    between atoms: _349  and  _351
REMARK  139  A    between atoms: _351  and  _352
REMARK  140  A    between atoms: _351  and  _354
REMARK  141  A    between atoms: _354  and  _355
REMARK  142  A    between atoms: _358  and  _360
REMARK  143  A    between atoms: _360  and  _361
REMARK  144  A    between atoms: _360  and  _363
REMARK  145  A    between atoms: _363  and  _364
REMARK  146  A    between atoms: _367  and  _369
REMARK  147  A    between atoms: _369  and  _370
REMARK  148  A    between atoms: _369  and  _372
REMARK  149  A    between atoms: _372  and  _373
REMARK  150  A    between atoms: _376  and  _378
REMARK  151  A    between atoms: _378  and  _379
REMARK  152  A    between atoms: _378  and  _381
REMARK  153  A    between atoms: _381  and  _382
REMARK  154  A    between atoms: _385  and  _387
REMARK  155  A    between atoms: _387  and  _388
REMARK  156  A    between atoms: _390  and  _392
REMARK  157  A    between atoms: _392  and  _393
REMARK  158  A    between atoms: _396  and  _398
REMARK  159  A    between atoms: _398  and  _399
REMARK  160  A    between atoms: _398  and  _401
REMARK  161  A    between atoms: _401  and  _402
REMARK  162  A    between atoms: _405  and  _407
REMARK  163  A    between atoms: _407  and  _408
REMARK  164  A    between atoms: _407  and  _410
REMARK  165  A    between atoms: _410  and  _411
REMARK  166  A    between atoms: _414  and  _416
REMARK  167  A    between atoms: _416  and  _417
REMARK  168  A    between atoms: _416  and  _419
REMARK  169  A    between atoms: _419  and  _420
REMARK  170  A    between atoms: _423  and  _425
REMARK  171  A    between atoms: _425  and  _426
REMARK  172  A    between atoms: _425  and  _428
REMARK  173  A    between atoms: _431  and  _433
REMARK  174  A    between atoms: _433  and  _434
REMARK  175  A    between atoms: _433  and  _436
REMARK  176  A    between atoms: _436  and  _437
REMARK  177  A    between atoms: _440  and  _442
REMARK  178  A    between atoms: _442  and  _443
REMARK  179  A    between atoms: _442  and  _445
REMARK  180  A    between atoms: _445  and  _446
REMARK  181  A    between atoms: _446  and  _447
REMARK  182  A    between atoms: _447  and  _448
REMARK  183  A    between atoms: _448  and  _449
REMARK  184  A    between atoms: _453  and  _455
REMARK  185  A    between atoms: _455  and  _456
REMARK  186  A    between atoms: _455  and  _458
REMARK  187  A    between atoms: _458  and  _459
REMARK  188  A    between atoms: _459  and  _460
REMARK  189  A    between atoms: _462  and  _464
REMARK  190  A    between atoms: _464  and  _465
REMARK  191  A    between atoms: _464  and  _467
REMARK  192  A    between atoms: _467  and  _468
REMARK  193  A    between atoms: _471  and  _473
REMARK  194  A    between atoms: _473  and  _474
REMARK  195  A    between atoms: _476  and  _478
REMARK  196  A    between atoms: _478  and  _479
REMARK  197  A    between atoms: _481  and  _483
REMARK  198  A    between atoms: _483  and  _484
REMARK  199  A    between atoms: _483  and  _486
REMARK  200  A    between atoms: _486  and  _487
REMARK  201  A    between atoms: _490  and  _492
REMARK  202  A    between atoms: _492  and  _493
REMARK  203  A    between atoms: _495  and  _497
REMARK  204  A    between atoms: _497  and  _498
REMARK  205  A    between atoms: _500  and  _502
REMARK  206  A    between atoms: _502  and  _503
REMARK  207  A    between atoms: _502  and  _505
REMARK  208  A    between atoms: _505  and  _506
REMARK  209  A    between atoms: _512  and  _514
REMARK  210  A    between atoms: _514  and  _515
REMARK  211  A    between atoms: _514  and  _517
REMARK  212  A    between atoms: _517  and  _518
REMARK  213  A    between atoms: _521  and  _523
REMARK  214  A    between atoms: _523  and  _524
REMARK  215  A    between atoms: _523  and  _526
REMARK  216  A    between atoms: _529  and  _531
REMARK  217  A    between atoms: _531  and  _532
REMARK  218  A    between atoms: _531  and  _534
REMARK  219  A    between atoms: _534  and  _535
REMARK  220  A    between atoms: _539  and  _540
REMARK  221  A    between atoms: _545  and  _547
REMARK  222  A    between atoms: _547  and  _548
REMARK  223  A    between atoms: _547  and  _550
REMARK  224  A    between atoms: _550  and  _551
REMARK  225  A    between atoms: _555  and  _556
REMARK  226  A    between atoms: _561  and  _563
REMARK  227  A    between atoms: _563  and  _564
REMARK  228  A    between atoms: _563  and  _566
REMARK  229  A    between atoms: _569  and  _571
REMARK  230  A    between atoms: _571  and  _572
REMARK  231  A    between atoms: _571  and  _574
REMARK  232  A    between atoms: _574  and  _575
REMARK  233  A    between atoms: _580  and  _582
REMARK  234  A    between atoms: _582  and  _583
REMARK  235  A    between atoms: _582  and  _585
REMARK  236  A    between atoms: _585  and  _586
REMARK  237  A    between atoms: _589  and  _591
REMARK  238  A    between atoms: _591  and  _592
REMARK  239  A    between atoms: _591  and  _594
REMARK  240  A    between atoms: _594  and  _595
REMARK  241  A    between atoms: _598  and  _600
REMARK  242  A    between atoms: _600  and  _601
REMARK  243  A    between atoms: _603  and  _605
REMARK  244  A    between atoms: _605  and  _606
REMARK  245  A    between atoms: _605  and  _608
REMARK  246  A    between atoms: _608  and  _609
REMARK  247  A    between atoms: _609  and  _610
REMARK  248  A    between atoms: _610  and  _611
REMARK  249  A    between atoms: _620  and  _622
REMARK  250  A    between atoms: _622  and  _623
REMARK  251  A    between atoms: _622  and  _625
REMARK  252  A    between atoms: _625  and  _626
REMARK                            x       y       z     vdW  Elec       q    Type
REMARK                         _______ _______ _______ _____ _____    ______ ____
ROOT
ATOM      1  O   HOH     1      23.942  21.846  11.960  0.00  0.00    +0.000 OA
ENDROOT
TORSDOF 0
REMARK  Name = ../refined-set-2016/1w5y/1w5y_pocket.pdb
REMARK  252 active torsions:
REMARK  status: ('A' for Active; 'I' for Inactive)
REMARK    1  A    between atoms: _1  and  _3
REMARK    2  A    between atoms: _3  and  _4
REMARK    3  A    between atoms: _3  and  _6
REMARK    4  A    between atoms: _6  and  _7
REMARK    5  A    between atoms: _7  and  _8
REMARK    6  A    between atoms: _8  and  _9
REMARK    7  A    between atoms: _19  and  _20
REMARK    8  A    between atoms: _25  and  _27
REMARK    9  A    between atoms: _27  and  _28
REMARK   10  A    between atoms: _27  and  _30
REMARK   11  A    between atoms: _30  and  _31
REMARK   12  A    between atoms: _34  and  _36
REMARK   13  A    between atoms: _36  and  _37
REMARK   14  A    between atoms: _36  and  _39
REMARK   15  A    between atoms: _39  and  _40
REMARK   16  A    between atoms: _43  and  _45
REMARK   17  A    between atoms: _45  and  _46
REMARK   18  A    between atoms: _45  and  _48
REMARK   19  A    between atoms: _48  and  _49
REMARK   20  A    between atoms: _52  and  _54
REMARK   21  A    between atoms: _54  and  _55
REMARK   22  A    between atoms: _54  and  _57
REMARK   23  A    between atoms: _57  and  _58
REMARK   24  A    between atoms: _61  and  _63
REMARK   25  A    between atoms: _63  and  _64
REMARK   26  A    between atoms: _63  and  _66
REMARK   27  A    between atoms: _66  and  _67
REMARK   28  A    between atoms: _70  and  _72
REMARK   29  A    between atoms: _72  and  _73
REMARK   30  A    between atoms: _75  and  _77
REMARK   31  A    between atoms: _77  and  _78
REMARK   32  A    between atoms: _81  and  _83
REMARK   33  A    between atoms: _83  and  _84
REMARK   34  A    between atoms: _83  and  _86
REMARK   35  A    between atoms: _86  and  _87
REMARK   36  A    between atoms: _90  and  _92
REMARK   37  A    between atoms: _92  and  _93
REMARK   38  A    between atoms: _92  and  _95
REMARK   39  A    between atoms: _95  and  _96
REMARK   40  A    between atoms: _99  and  _101
REMARK   41  A    between atoms: _101  and  _102
REMARK   42  A    between atoms: _101  and  _104
REMARK   43  A    between atoms: _104  and  _105
REMARK   44  A    between atoms: _108  and  _110
REMARK   45  A    between atoms: _110  and  _111
REMARK   46  A    between atoms: _110  and  _113
REMARK   47  A    between atoms: _116  and  _118
REMARK   48  A    between atoms: _118  and  _119
REMARK   49  A    between atoms: _118  and  _121
REMARK   50  A    between atoms: _121  and  _122
REMARK   51  A    between atoms: _125  and  _127
REMARK   52  A    between atoms: _127  and  _128
REMARK   53  A    between atoms: _127  and  _130
REMARK   54  A    between atoms: _130  and  _131
REMARK   55  A    between atoms: _131  and  _132
REMARK   56  A    between atoms: _132  and  _133
REMARK   57  A    between atoms: _133  and  _134
REMARK   58  A    between atoms: _138  and  _140
REMARK   59  A    between atoms: _140  and  _141
REMARK   60  A    between atoms: _140  and  _143
REMARK   61  A    between atoms: _143  and  _144
REMARK   62  A    between atoms: _144  and  _145
REMARK   63  A    between atoms: _147  and  _149
REMARK   64  A    between atoms: _149  and  _150
REMARK   65  A    between atoms: _149  and  _152
REMARK   66  A    between atoms: _152  and  _153
REMARK   67  A    between atoms: _156  and  _158
REMARK   68  A    between atoms: _158  and  _159
REMARK   69  A    between atoms: _161  and  _163
REMARK   70  A    between atoms: _163  and  _164
REMARK   71  A    between atoms: _166  and  _168
REMARK   72  A    between atoms: _168  and  _169
REMARK   73  A    between atoms: _168  and  _171
REMARK   74  A    between atoms: _171  and  _172
REMARK   75  A    between atoms: _175  and  _177
REMARK   76  A    between atoms: _177  and  _178
REMARK   77  A    between atoms: _180  and  _182
REMARK   78  A    between atoms: _182  and  _183
REMARK   79  A    between atoms: _185  and  _187
REMARK   80  A    between atoms: _187  and  _188
REMARK   81  A    between atoms: _187  and  _190
REMARK   82  A    between atoms: _190  and  _191
REMARK   83  A    between atoms: _197  and  _199
REMARK   84  A    between atoms: _199  and  _200
REMARK   85  A    between atoms: _199  and  _202
REMARK   86  A    between atoms: _202  and  _203
REMARK   87  A    between atoms: _206  and  _208
REMARK   88  A    between atoms: _208  and  _209
REMARK   89  A    between atoms: _208  and  _211
REMARK   90  A    between atoms: _214  and  _216
REMARK   91  A    between atoms: _216  and  _217
REMARK   92  A    between atoms: _216  and  _219
REMARK   93  A    between atoms: _219  and  _220
REMARK   94  A    between atoms: _224  and  _225
REMARK   95  A    between atoms: _230  and  _232
REMARK   96  A    between atoms: _232  and  _233
REMARK   97  A    between atoms: _232  and  _235
REMARK   98  A    between atoms: _235  and  _236
REMARK   99  A    between atoms: _240  and  _241
REMARK  100  A    between atoms: _246  and  _248
REMARK  101  A    between atoms: _248  and  _249
REMARK  102  A    between atoms: _248  and  _251
REMARK  103  A    between atoms: _254  and  _256
REMARK  104  A    between atoms: _256  and  _257
REMARK  105  A    between atoms: _256  and  _259
REMARK  106  A    between atoms: _259  and  _260
REMARK  107  A    between atoms: _265  and  _267
REMARK  108  A    between atoms: _267  and  _268
REMARK  109  A    between atoms: _267  and  _270
REMARK  110  A    between atoms: _270  and  _271
REMARK  111  A    between atoms: _274  and  _276
REMARK  112  A    between atoms: _276  and  _277
REMARK  113  A    between atoms: _276  and  _279
REMARK  114  A    between atoms: _279  and  _280
REMARK  115  A    between atoms: _283  and  _285
REMARK  116  A    between atoms: _285  and  _286
REMARK  117  A    between atoms: _288  and  _290
REMARK  118  A    between atoms: _290  and  _291
REMARK  119  A    between atoms: _290  and  _293
REMARK  120  A    between atoms: _293  and  _294
REMARK  121  A    between atoms: _294  and  _295
REMARK  122  A    between atoms: _295  and  _296
REMARK  123  A    between atoms: _305  and  _307
REMARK  124  A    between atoms: _307  and  _308
REMARK  125  A    between atoms: _307  and  _310
REMARK  126  A    between atoms: _310  and  _311
REMARK  127  A    between atoms: _316  and  _318
REMARK  128  A    between atoms: _318  and  _319
REMARK  129  A    between atoms: _318  and  _321
REMARK  130  A    between atoms: _321  and  _322
REMARK  131  A    between atoms: _322  and  _323
REMARK  132  A    between atoms: _323  and  _324
REMARK  133  A    between atoms: _334  and  _335
REMARK  134  A    between atoms: _340  and  _342
REMARK  135  A    between atoms: _342  and  _343
REMARK  136  A    between atoms: _342  and  _345
REMARK  137  A    between atoms: _345  and  _346
REMARK  138  A    between atoms: _349  and  _351
REMARK  139  A    between atoms: _351  and  _352
REMARK  140  A    between atoms: _351  and  _354
REMARK  141  A    between atoms: _354  and  _355
REMARK  142  A    between atoms: _358  and  _360
REMARK  143  A    between atoms: _360  and  _361
REMARK  144  A    between atoms: _360  and  _363
REMARK  145  A    between atoms: _363  and  _364
REMARK  146  A    between atoms: _367  and  _369
REMARK  147  A    between atoms: _369  and  _370
REMARK  148  A    between atoms: _369  and  _372
REMARK  149  A    between atoms: _372  and  _373
REMARK  150  A    between atoms: _376  and  _378
REMARK  151  A    between atoms: _378  and  _379
REMARK  152  A    between atoms: _378  and  _381
REMARK  153  A    between atoms: _381  and  _382
REMARK  154  A    between atoms: _385  and  _387
REMARK  155  A    between atoms: _387  and  _388
REMARK  156  A    between atoms: _390  and  _392
REMARK  157  A    between atoms: _392  and  _393
REMARK  158  A    between atoms: _396  and  _398
REMARK  159  A    between atoms: _398  and  _399
REMARK  160  A    between atoms: _398  and  _401
REMARK  161  A    between atoms: _401  and  _402
REMARK  162  A    between atoms: _405  and  _407
REMARK  163  A    between atoms: _407  and  _408
REMARK  164  A    between atoms: _407  and  _410
REMARK  165  A    between atoms: _410  and  _411
REMARK  166  A    between atoms: _414  and  _416
REMARK  167  A    between atoms: _416  and  _417
REMARK  168  A    between atoms: _416  and  _419
REMARK  169  A    between atoms: _419  and  _420
REMARK  170  A    between atoms: _423  and  _425
REMARK  171  A    between atoms: _425  and  _426
REMARK  172  A    between atoms: _425  and  _428
REMARK  173  A    between atoms: _431  and  _433
REMARK  174  A    between atoms: _433  and  _434
REMARK  175  A    between atoms: _433  and  _436
REMARK  176  A    between atoms: _436  and  _437
REMARK  177  A    between atoms: _440  and  _442
REMARK  178  A    between atoms: _442  and  _443
REMARK  179  A    between atoms: _442  and  _445
REMARK  180  A    between atoms: _445  and  _446
REMARK  181  A    between atoms: _446  and  _447
REMARK  182  A    between atoms: _447  and  _448
REMARK  183  A    between atoms: _448  and  _449
REMARK  184  A    between atoms: _453  and  _455
REMARK  185  A    between atoms: _455  and  _456
REMARK  186  A    between atoms: _455  and  _458
REMARK  187  A    between atoms: _458  and  _459
REMARK  188  A    between atoms: _459  and  _460
REMARK  189  A    between atoms: _462  and  _464
REMARK  190  A    between atoms: _464  and  _465
REMARK  191  A    between atoms: _464  and  _467
REMARK  192  A    between atoms: _467  and  _468
REMARK  193  A    between atoms: _471  and  _473
REMARK  194  A    between atoms: _473  and  _474
REMARK  195  A    between atoms: _476  and  _478
REMARK  196  A    between atoms: _478  and  _479
REMARK  197  A    between atoms: _481  and  _483
REMARK  198  A    between atoms: _483  and  _484
REMARK  199  A    between atoms: _483  and  _486
REMARK  200  A    between atoms: _486  and  _487
REMARK  201  A    between atoms: _490  and  _492
REMARK  202  A    between atoms: _492  and  _493
REMARK  203  A    between atoms: _495  and  _497
REMARK  204  A    between atoms: _497  and  _498
REMARK  205  A    between atoms: _500  and  _502
REMARK  206  A    between atoms: _502  and  _503
REMARK  207  A    between atoms: _502  and  _505
REMARK  208  A    between atoms: _505  and  _506
REMARK  209  A    between atoms: _512  and  _514
REMARK  210  A    between atoms: _514  and  _515
REMARK  211  A    between atoms: _514  and  _517
REMARK  212  A    between atoms: _517  and  _518
REMARK  213  A    between atoms: _521  and  _523
REMARK  214  A    between atoms: _523  and  _524
REMARK  215  A    between atoms: _523  and  _526
REMARK  216  A    between atoms: _529  and  _531
REMARK  217  A    between atoms: _531  and  _532
REMARK  218  A    between atoms: _531  and  _534
REMARK  219  A    between atoms: _534  and  _535
REMARK  220  A    between atoms: _539  and  _540
REMARK  221  A    between atoms: _545  and  _547
REMARK  222  A    between atoms: _547  and  _548
REMARK  223  A    between atoms: _547  and  _550
REMARK  224  A    between atoms: _550  and  _551
REMARK  225  A    between atoms: _555  and  _556
REMARK  226  A    between atoms: _561  and  _563
REMARK  227  A    between atoms: _563  and  _564
REMARK  228  A    between atoms: _563  and  _566
REMARK  229  A    between atoms: _569  and  _571
REMARK  230  A    between atoms: _571  and  _572
REMARK  231  A    between atoms: _571  and  _574
REMARK  232  A    between atoms: _574  and  _575
REMARK  233  A    between atoms: _580  and  _582
REMARK  234  A    between atoms: _582  and  _583
REMARK  235  A    between atoms: _582  and  _585
REMARK  236  A    between atoms: _585  and  _586
REMARK  237  A    between atoms: _589  and  _591
REMARK  238  A    between atoms: _591  and  _592
REMARK  239  A    between atoms: _591  and  _594
REMARK  240  A    between atoms: _594  and  _595
REMARK  241  A    between atoms: _598  and  _600
REMARK  242  A    between atoms: _600  and  _601
REMARK  243  A    between atoms: _603  and  _605
REMARK  244  A    between atoms: _605  and  _606
REMARK  245  A    between atoms: _605  and  _608
REMARK  246  A    between atoms: _608  and  _609
REMARK  247  A    between atoms: _609  and  _610
REMARK  248  A    between atoms: _610  and  _611
REMARK  249  A    between atoms: _620  and  _622
REMARK  250  A    between atoms: _622  and  _623
REMARK  251  A    between atoms: _622  and  _625
REMARK  252  A    between atoms: _625  and  _626
REMARK                            x       y       z     vdW  Elec       q    Type
REMARK                         _______ _______ _______ _____ _____    ______ ____
ROOT
ATOM      1  O   HOH     1       4.235  30.202   5.996  0.00  0.00    +0.000 OA
ENDROOT
TORSDOF 0
REMARK  Name = ../refined-set-2016/1w5y/1w5y_pocket.pdb
REMARK  252 active torsions:
REMARK  status: ('A' for Active; 'I' for Inactive)
REMARK    1  A    between atoms: _1  and  _3
REMARK    2  A    between atoms: _3  and  _4
REMARK    3  A    between atoms: _3  and  _6
REMARK    4  A    between atoms: _6  and  _7
REMARK    5  A    between atoms: _7  and  _8
REMARK    6  A    between atoms: _8  and  _9
REMARK    7  A    between atoms: _19  and  _20
REMARK    8  A    between atoms: _25  and  _27
REMARK    9  A    between atoms: _27  and  _28
REMARK   10  A    between atoms: _27  and  _30
REMARK   11  A    between atoms: _30  and  _31
REMARK   12  A    between atoms: _34  and  _36
REMARK   13  A    between atoms: _36  and  _37
REMARK   14  A    between atoms: _36  and  _39
REMARK   15  A    between atoms: _39  and  _40
REMARK   16  A    between atoms: _43  and  _45
REMARK   17  A    between atoms: _45  and  _46
REMARK   18  A    between atoms: _45  and  _48
REMARK   19  A    between atoms: _48  and  _49
REMARK   20  A    between atoms: _52  and  _54
REMARK   21  A    between atoms: _54  and  _55
REMARK   22  A    between atoms: _54  and  _57
REMARK   23  A    between atoms: _57  and  _58
REMARK   24  A    between atoms: _61  and  _63
REMARK   25  A    between atoms: _63  and  _64
REMARK   26  A    between atoms: _63  and  _66
REMARK   27  A    between atoms: _66  and  _67
REMARK   28  A    between atoms: _70  and  _72
REMARK   29  A    between atoms: _72  and  _73
REMARK   30  A    between atoms: _75  and  _77
REMARK   31  A    between atoms: _77  and  _78
REMARK   32  A    between atoms: _81  and  _83
REMARK   33  A    between atoms: _83  and  _84
REMARK   34  A    between atoms: _83  and  _86
REMARK   35  A    between atoms: _86  and  _87
REMARK   36  A    between atoms: _90  and  _92
REMARK   37  A    between atoms: _92  and  _93
REMARK   38  A    between atoms: _92  and  _95
REMARK   39  A    between atoms: _95  and  _96
REMARK   40  A    between atoms: _99  and  _101
REMARK   41  A    between atoms: _101  and  _102
REMARK   42  A    between atoms: _101  and  _104
REMARK   43  A    between atoms: _104  and  _105
REMARK   44  A    between atoms: _108  and  _110
REMARK   45  A    between atoms: _110  and  _111
REMARK   46  A    between atoms: _110  and  _113
REMARK   47  A    between atoms: _116  and  _118
REMARK   48  A    between atoms: _118  and  _119
REMARK   49  A    between atoms: _118  and  _121
REMARK   50  A    between atoms: _121  and  _122
REMARK   51  A    between atoms: _125  and  _127
REMARK   52  A    between atoms: _127  and  _128
REMARK   53  A    between atoms: _127  and  _130
REMARK   54  A    between atoms: _130  and  _131
REMARK   55  A    between atoms: _131  and  _132
REMARK   56  A    between atoms: _132  and  _133
REMARK   57  A    between atoms: _133  and  _134
REMARK   58  A    between atoms: _138  and  _140
REMARK   59  A    between atoms: _140  and  _141
REMARK   60  A    between atoms: _140  and  _143
REMARK   61  A    between atoms: _143  and  _144
REMARK   62  A    between atoms: _144  and  _145
REMARK   63  A    between atoms: _147  and  _149
REMARK   64  A    between atoms: _149  and  _150
REMARK   65  A    between atoms: _149  and  _152
REMARK   66  A    between atoms: _152  and  _153
REMARK   67  A    between atoms: _156  and  _158
REMARK   68  A    between atoms: _158  and  _159
REMARK   69  A    between atoms: _161  and  _163
REMARK   70  A    between atoms: _163  and  _164
REMARK   71  A    between atoms: _166  and  _168
REMARK   72  A    between atoms: _168  and  _169
REMARK   73  A    between atoms: _168  and  _171
REMARK   74  A    between atoms: _171  and  _172
REMARK   75  A    between atoms: _175  and  _177
REMARK   76  A    between atoms: _177  and  _178
REMARK   77  A    between atoms: _180  and  _182
REMARK   78  A    between atoms: _182  and  _183
REMARK   79  A    between atoms: _185  and  _187
REMARK   80  A    between atoms: _187  and  _188
REMARK   81  A    between atoms: _187  and  _190
REMARK   82  A    between atoms: _190  and  _191
REMARK   83  A    between atoms: _197  and  _199
REMARK   84  A    between atoms: _199  and  _200
REMARK   85  A    between atoms: _199  and  _202
REMARK   86  A    between atoms: _202  and  _203
REMARK   87  A    between atoms: _206  and  _208
REMARK   88  A    between atoms: _208  and  _209
REMARK   89  A    between atoms: _208  and  _211
REMARK   90  A    between atoms: _214  and  _216
REMARK   91  A    between atoms: _216  and  _217
REMARK   92  A    between atoms: _216  and  _219
REMARK   93  A    between atoms: _219  and  _220
REMARK   94  A    between atoms: _224  and  _225
REMARK   95  A    between atoms: _230  and  _232
REMARK   96  A    between atoms: _232  and  _233
REMARK   97  A    between atoms: _232  and  _235
REMARK   98  A    between atoms: _235  and  _236
REMARK   99  A    between atoms: _240  and  _241
REMARK  100  A    between atoms: _246  and  _248
REMARK  101  A    between atoms: _248  and  _249
REMARK  102  A    between atoms: _248  and  _251
REMARK  103  A    between atoms: _254  and  _256
REMARK  104  A    between atoms: _256  and  _257
REMARK  105  A    between atoms: _256  and  _259
REMARK  106  A    between atoms: _259  and  _260
REMARK  107  A    between atoms: _265  and  _267
REMARK  108  A    between atoms: _267  and  _268
REMARK  109  A    between atoms: _267  and  _270
REMARK  110  A    between atoms: _270  and  _271
REMARK  111  A    between atoms: _274  and  _276
REMARK  112  A    between atoms: _276  and  _277
REMARK  113  A    between atoms: _276  and  _279
REMARK  114  A    between atoms: _279  and  _280
REMARK  115  A    between atoms: _283  and  _285
REMARK  116  A    between atoms: _285  and  _286
REMARK  117  A    between atoms: _288  and  _290
REMARK  118  A    between atoms: _290  and  _291
REMARK  119  A    between atoms: _290  and  _293
REMARK  120  A    between atoms: _293  and  _294
REMARK  121  A    between atoms: _294  and  _295
REMARK  122  A    between atoms: _295  and  _296
REMARK  123  A    between atoms: _305  and  _307
REMARK  124  A    between atoms: _307  and  _308
REMARK  125  A    between atoms: _307  and  _310
REMARK  126  A    between atoms: _310  and  _311
REMARK  127  A    between atoms: _316  and  _318
REMARK  128  A    between atoms: _318  and  _319
REMARK  129  A    between atoms: _318  and  _321
REMARK  130  A    between atoms: _321  and  _322
REMARK  131  A    between atoms: _322  and  _323
REMARK  132  A    between atoms: _323  and  _324
REMARK  133  A    between atoms: _334  and  _335
REMARK  134  A    between atoms: _340  and  _342
REMARK  135  A    between atoms: _342  and  _343
REMARK  136  A    between atoms: _342  and  _345
REMARK  137  A    between atoms: _345  and  _346
REMARK  138  A    between atoms: _349  and  _351
REMARK  139  A    between atoms: _351  and  _352
REMARK  140  A    between atoms: _351  and  _354
REMARK  141  A    between atoms: _354  and  _355
REMARK  142  A    between atoms: _358  and  _360
REMARK  143  A    between atoms: _360  and  _361
REMARK  144  A    between atoms: _360  and  _363
REMARK  145  A    between atoms: _363  and  _364
REMARK  146  A    between atoms: _367  and  _369
REMARK  147  A    between atoms: _369  and  _370
REMARK  148  A    between atoms: _369  and  _372
REMARK  149  A    between atoms: _372  and  _373
REMARK  150  A    between atoms: _376  and  _378
REMARK  151  A    between atoms: _378  and  _379
REMARK  152  A    between atoms: _378  and  _381
REMARK  153  A    between atoms: _381  and  _382
REMARK  154  A    between atoms: _385  and  _387
REMARK  155  A    between atoms: _387  and  _388
REMARK  156  A    between atoms: _390  and  _392
REMARK  157  A    between atoms: _392  and  _393
REMARK  158  A    between atoms: _396  and  _398
REMARK  159  A    between atoms: _398  and  _399
REMARK  160  A    between atoms: _398  and  _401
REMARK  161  A    between atoms: _401  and  _402
REMARK  162  A    between atoms: _405  and  _407
REMARK  163  A    between atoms: _407  and  _408
REMARK  164  A    between atoms: _407  and  _410
REMARK  165  A    between atoms: _410  and  _411
REMARK  166  A    between atoms: _414  and  _416
REMARK  167  A    between atoms: _416  and  _417
REMARK  168  A    between atoms: _416  and  _419
REMARK  169  A    between atoms: _419  and  _420
REMARK  170  A    between atoms: _423  and  _425
REMARK  171  A    between atoms: _425  and  _426
REMARK  172  A    between atoms: _425  and  _428
REMARK  173  A    between atoms: _431  and  _433
REMARK  174  A    between atoms: _433  and  _434
REMARK  175  A    between atoms: _433  and  _436
REMARK  176  A    between atoms: _436  and  _437
REMARK  177  A    between atoms: _440  and  _442
REMARK  178  A    between atoms: _442  and  _443
REMARK  179  A    between atoms: _442  and  _445
REMARK  180  A    between atoms: _445  and  _446
REMARK  181  A    between atoms: _446  and  _447
REMARK  182  A    between atoms: _447  and  _448
REMARK  183  A    between atoms: _448  and  _449
REMARK  184  A    between atoms: _453  and  _455
REMARK  185  A    between atoms: _455  and  _456
REMARK  186  A    between atoms: _455  and  _458
REMARK  187  A    between atoms: _458  and  _459
REMARK  188  A    between atoms: _459  and  _460
REMARK  189  A    between atoms: _462  and  _464
REMARK  190  A    between atoms: _464  and  _465
REMARK  191  A    between atoms: _464  and  _467
REMARK  192  A    between atoms: _467  and  _468
REMARK  193  A    between atoms: _471  and  _473
REMARK  194  A    between atoms: _473  and  _474
REMARK  195  A    between atoms: _476  and  _478
REMARK  196  A    between atoms: _478  and  _479
REMARK  197  A    between atoms: _481  and  _483
REMARK  198  A    between atoms: _483  and  _484
REMARK  199  A    between atoms: _483  and  _486
REMARK  200  A    between atoms: _486  and  _487
REMARK  201  A    between atoms: _490  and  _492
REMARK  202  A    between atoms: _492  and  _493
REMARK  203  A    between atoms: _495  and  _497
REMARK  204  A    between atoms: _497  and  _498
REMARK  205  A    between atoms: _500  and  _502
REMARK  206  A    between atoms: _502  and  _503
REMARK  207  A    between atoms: _502  and  _505
REMARK  208  A    between atoms: _505  and  _506
REMARK  209  A    between atoms: _512  and  _514
REMARK  210  A    between atoms: _514  and  _515
REMARK  211  A    between atoms: _514  and  _517
REMARK  212  A    between atoms: _517  and  _518
REMARK  213  A    between atoms: _521  and  _523
REMARK  214  A    between atoms: _523  and  _524
REMARK  215  A    between atoms: _523  and  _526
REMARK  216  A    between atoms: _529  and  _531
REMARK  217  A    between atoms: _531  and  _532
REMARK  218  A    between atoms: _531  and  _534
REMARK  219  A    between atoms: _534  and  _535
REMARK  220  A    between atoms: _539  and  _540
REMARK  221  A    between atoms: _545  and  _547
REMARK  222  A    between atoms: _547  and  _548
REMARK  223  A    between atoms: _547  and  _550
REMARK  224  A    between atoms: _550  and  _551
REMARK  225  A    between atoms: _555  and  _556
REMARK  226  A    between atoms: _561  and  _563
REMARK  227  A    between atoms: _563  and  _564
REMARK  228  A    between atoms: _563  and  _566
REMARK  229  A    between atoms: _569  and  _571
REMARK  230  A    between atoms: _571  and  _572
REMARK  231  A    between atoms: _571  and  _574
REMARK  232  A    between atoms: _574  and  _575
REMARK  233  A    between atoms: _580  and  _582
REMARK  234  A    between atoms: _582  and  _583
REMARK  235  A    between atoms: _582  and  _585
REMARK  236  A    between atoms: _585  and  _586
REMARK  237  A    between atoms: _589  and  _591
REMARK  238  A    between atoms: _591  and  _592
REMARK  239  A    between atoms: _591  and  _594
REMARK  240  A    between atoms: _594  and  _595
REMARK  241  A    between atoms: _598  and  _600
REMARK  242  A    between atoms: _600  and  _601
REMARK  243  A    between atoms: _603  and  _605
REMARK  244  A    between atoms: _605  and  _606
REMARK  245  A    between atoms: _605  and  _608
REMARK  246  A    between atoms: _608  and  _609
REMARK  247  A    between atoms: _609  and  _610
REMARK  248  A    between atoms: _610  and  _611
REMARK  249  A    between atoms: _620  and  _622
REMARK  250  A    between atoms: _622  and  _623
REMARK  251  A    between atoms: _622  and  _625
REMARK  252  A    between atoms: _625  and  _626
REMARK                            x       y       z     vdW  Elec       q    Type
REMARK                         _______ _______ _______ _____ _____    ______ ____
ROOT
ATOM      1  O   HOH     1       5.227  33.998   7.054  0.00  0.00    +0.000 OA
ENDROOT
TORSDOF 0
REMARK  Name = ../refined-set-2016/1w5y/1w5y_pocket.pdb
REMARK  252 active torsions:
REMARK  status: ('A' for Active; 'I' for Inactive)
REMARK    1  A    between atoms: _1  and  _3
REMARK    2  A    between atoms: _3  and  _4
REMARK    3  A    between atoms: _3  and  _6
REMARK    4  A    between atoms: _6  and  _7
REMARK    5  A    between atoms: _7  and  _8
REMARK    6  A    between atoms: _8  and  _9
REMARK    7  A    between atoms: _19  and  _20
REMARK    8  A    between atoms: _25  and  _27
REMARK    9  A    between atoms: _27  and  _28
REMARK   10  A    between atoms: _27  and  _30
REMARK   11  A    between atoms: _30  and  _31
REMARK   12  A    between atoms: _34  and  _36
REMARK   13  A    between atoms: _36  and  _37
REMARK   14  A    between atoms: _36  and  _39
REMARK   15  A    between atoms: _39  and  _40
REMARK   16  A    between atoms: _43  and  _45
REMARK   17  A    between atoms: _45  and  _46
REMARK   18  A    between atoms: _45  and  _48
REMARK   19  A    between atoms: _48  and  _49
REMARK   20  A    between atoms: _52  and  _54
REMARK   21  A    between atoms: _54  and  _55
REMARK   22  A    between atoms: _54  and  _57
REMARK   23  A    between atoms: _57  and  _58
REMARK   24  A    between atoms: _61  and  _63
REMARK   25  A    between atoms: _63  and  _64
REMARK   26  A    between atoms: _63  and  _66
REMARK   27  A    between atoms: _66  and  _67
REMARK   28  A    between atoms: _70  and  _72
REMARK   29  A    between atoms: _72  and  _73
REMARK   30  A    between atoms: _75  and  _77
REMARK   31  A    between atoms: _77  and  _78
REMARK   32  A    between atoms: _81  and  _83
REMARK   33  A    between atoms: _83  and  _84
REMARK   34  A    between atoms: _83  and  _86
REMARK   35  A    between atoms: _86  and  _87
REMARK   36  A    between atoms: _90  and  _92
REMARK   37  A    between atoms: _92  and  _93
REMARK   38  A    between atoms: _92  and  _95
REMARK   39  A    between atoms: _95  and  _96
REMARK   40  A    between atoms: _99  and  _101
REMARK   41  A    between atoms: _101  and  _102
REMARK   42  A    between atoms: _101  and  _104
REMARK   43  A    between atoms: _104  and  _105
REMARK   44  A    between atoms: _108  and  _110
REMARK   45  A    between atoms: _110  and  _111
REMARK   46  A    between atoms: _110  and  _113
REMARK   47  A    between atoms: _116  and  _118
REMARK   48  A    between atoms: _118  and  _119
REMARK   49  A    between atoms: _118  and  _121
REMARK   50  A    between atoms: _121  and  _122
REMARK   51  A    between atoms: _125  and  _127
REMARK   52  A    between atoms: _127  and  _128
REMARK   53  A    between atoms: _127  and  _130
REMARK   54  A    between atoms: _130  and  _131
REMARK   55  A    between atoms: _131  and  _132
REMARK   56  A    between atoms: _132  and  _133
REMARK   57  A    between atoms: _133  and  _134
REMARK   58  A    between atoms: _138  and  _140
REMARK   59  A    between atoms: _140  and  _141
REMARK   60  A    between atoms: _140  and  _143
REMARK   61  A    between atoms: _143  and  _144
REMARK   62  A    between atoms: _144  and  _145
REMARK   63  A    between atoms: _147  and  _149
REMARK   64  A    between atoms: _149  and  _150
REMARK   65  A    between atoms: _149  and  _152
REMARK   66  A    between atoms: _152  and  _153
REMARK   67  A    between atoms: _156  and  _158
REMARK   68  A    between atoms: _158  and  _159
REMARK   69  A    between atoms: _161  and  _163
REMARK   70  A    between atoms: _163  and  _164
REMARK   71  A    between atoms: _166  and  _168
REMARK   72  A    between atoms: _168  and  _169
REMARK   73  A    between atoms: _168  and  _171
REMARK   74  A    between atoms: _171  and  _172
REMARK   75  A    between atoms: _175  and  _177
REMARK   76  A    between atoms: _177  and  _178
REMARK   77  A    between atoms: _180  and  _182
REMARK   78  A    between atoms: _182  and  _183
REMARK   79  A    between atoms: _185  and  _187
REMARK   80  A    between atoms: _187  and  _188
REMARK   81  A    between atoms: _187  and  _190
REMARK   82  A    between atoms: _190  and  _191
REMARK   83  A    between atoms: _197  and  _199
REMARK   84  A    between atoms: _199  and  _200
REMARK   85  A    between atoms: _199  and  _202
REMARK   86  A    between atoms: _202  and  _203
REMARK   87  A    between atoms: _206  and  _208
REMARK   88  A    between atoms: _208  and  _209
REMARK   89  A    between atoms: _208  and  _211
REMARK   90  A    between atoms: _214  and  _216
REMARK   91  A    between atoms: _216  and  _217
REMARK   92  A    between atoms: _216  and  _219
REMARK   93  A    between atoms: _219  and  _220
REMARK   94  A    between atoms: _224  and  _225
REMARK   95  A    between atoms: _230  and  _232
REMARK   96  A    between atoms: _232  and  _233
REMARK   97  A    between atoms: _232  and  _235
REMARK   98  A    between atoms: _235  and  _236
REMARK   99  A    between atoms: _240  and  _241
REMARK  100  A    between atoms: _246  and  _248
REMARK  101  A    between atoms: _248  and  _249
REMARK  102  A    between atoms: _248  and  _251
REMARK  103  A    between atoms: _254  and  _256
REMARK  104  A    between atoms: _256  and  _257
REMARK  105  A    between atoms: _256  and  _259
REMARK  106  A    between atoms: _259  and  _260
REMARK  107  A    between atoms: _265  and  _267
REMARK  108  A    between atoms: _267  and  _268
REMARK  109  A    between atoms: _267  and  _270
REMARK  110  A    between atoms: _270  and  _271
REMARK  111  A    between atoms: _274  and  _276
REMARK  112  A    between atoms: _276  and  _277
REMARK  113  A    between atoms: _276  and  _279
REMARK  114  A    between atoms: _279  and  _280
REMARK  115  A    between atoms: _283  and  _285
REMARK  116  A    between atoms: _285  and  _286
REMARK  117  A    between atoms: _288  and  _290
REMARK  118  A    between atoms: _290  and  _291
REMARK  119  A    between atoms: _290  and  _293
REMARK  120  A    between atoms: _293  and  _294
REMARK  121  A    between atoms: _294  and  _295
REMARK  122  A    between atoms: _295  and  _296
REMARK  123  A    between atoms: _305  and  _307
REMARK  124  A    between atoms: _307  and  _308
REMARK  125  A    between atoms: _307  and  _310
REMARK  126  A    between atoms: _310  and  _311
REMARK  127  A    between atoms: _316  and  _318
REMARK  128  A    between atoms: _318  and  _319
REMARK  129  A    between atoms: _318  and  _321
REMARK  130  A    between atoms: _321  and  _322
REMARK  131  A    between atoms: _322  and  _323
REMARK  132  A    between atoms: _323  and  _324
REMARK  133  A    between atoms: _334  and  _335
REMARK  134  A    between atoms: _340  and  _342
REMARK  135  A    between atoms: _342  and  _343
REMARK  136  A    between atoms: _342  and  _345
REMARK  137  A    between atoms: _345  and  _346
REMARK  138  A    between atoms: _349  and  _351
REMARK  139  A    between atoms: _351  and  _352
REMARK  140  A    between atoms: _351  and  _354
REMARK  141  A    between atoms: _354  and  _355
REMARK  142  A    between atoms: _358  and  _360
REMARK  143  A    between atoms: _360  and  _361
REMARK  144  A    between atoms: _360  and  _363
REMARK  145  A    between atoms: _363  and  _364
REMARK  146  A    between atoms: _367  and  _369
REMARK  147  A    between atoms: _369  and  _370
REMARK  148  A    between atoms: _369  and  _372
REMARK  149  A    between atoms: _372  and  _373
REMARK  150  A    between atoms: _376  and  _378
REMARK  151  A    between atoms: _378  and  _379
REMARK  152  A    between atoms: _378  and  _381
REMARK  153  A    between atoms: _381  and  _382
REMARK  154  A    between atoms: _385  and  _387
REMARK  155  A    between atoms: _387  and  _388
REMARK  156  A    between atoms: _390  and  _392
REMARK  157  A    between atoms: _392  and  _393
REMARK  158  A    between atoms: _396  and  _398
REMARK  159  A    between atoms: _398  and  _399
REMARK  160  A    between atoms: _398  and  _401
REMARK  161  A    between atoms: _401  and  _402
REMARK  162  A    between atoms: _405  and  _407
REMARK  163  A    between atoms: _407  and  _408
REMARK  164  A    between atoms: _407  and  _410
REMARK  165  A    between atoms: _410  and  _411
REMARK  166  A    between atoms: _414  and  _416
REMARK  167  A    between atoms: _416  and  _417
REMARK  168  A    between atoms: _416  and  _419
REMARK  169  A    between atoms: _419  and  _420
REMARK  170  A    between atoms: _423  and  _425
REMARK  171  A    between atoms: _425  and  _426
REMARK  172  A    between atoms: _425  and  _428
REMARK  173  A    between atoms: _431  and  _433
REMARK  174  A    between atoms: _433  and  _434
REMARK  175  A    between atoms: _433  and  _436
REMARK  176  A    between atoms: _436  and  _437
REMARK  177  A    between atoms: _440  and  _442
REMARK  178  A    between atoms: _442  and  _443
REMARK  179  A    between atoms: _442  and  _445
REMARK  180  A    between atoms: _445  and  _446
REMARK  181  A    between atoms: _446  and  _447
REMARK  182  A    between atoms: _447  and  _448
REMARK  183  A    between atoms: _448  and  _449
REMARK  184  A    between atoms: _453  and  _455
REMARK  185  A    between atoms: _455  and  _456
REMARK  186  A    between atoms: _455  and  _458
REMARK  187  A    between atoms: _458  and  _459
REMARK  188  A    between atoms: _459  and  _460
REMARK  189  A    between atoms: _462  and  _464
REMARK  190  A    between atoms: _464  and  _465
REMARK  191  A    between atoms: _464  and  _467
REMARK  192  A    between atoms: _467  and  _468
REMARK  193  A    between atoms: _471  and  _473
REMARK  194  A    between atoms: _473  and  _474
REMARK  195  A    between atoms: _476  and  _478
REMARK  196  A    between atoms: _478  and  _479
REMARK  197  A    between atoms: _481  and  _483
REMARK  198  A    between atoms: _483  and  _484
REMARK  199  A    between atoms: _483  and  _486
REMARK  200  A    between atoms: _486  and  _487
REMARK  201  A    between atoms: _490  and  _492
REMARK  202  A    between atoms: _492  and  _493
REMARK  203  A    between atoms: _495  and  _497
REMARK  204  A    between atoms: _497  and  _498
REMARK  205  A    between atoms: _500  and  _502
REMARK  206  A    between atoms: _502  and  _503
REMARK  207  A    between atoms: _502  and  _505
REMARK  208  A    between atoms: _505  and  _506
REMARK  209  A    between atoms: _512  and  _514
REMARK  210  A    between atoms: _514  and  _515
REMARK  211  A    between atoms: _514  and  _517
REMARK  212  A    between atoms: _517  and  _518
REMARK  213  A    between atoms: _521  and  _523
REMARK  214  A    between atoms: _523  and  _524
REMARK  215  A    between atoms: _523  and  _526
REMARK  216  A    between atoms: _529  and  _531
REMARK  217  A    between atoms: _531  and  _532
REMARK  218  A    between atoms: _531  and  _534
REMARK  219  A    between atoms: _534  and  _535
REMARK  220  A    between atoms: _539  and  _540
REMARK  221  A    between atoms: _545  and  _547
REMARK  222  A    between atoms: _547  and  _548
REMARK  223  A    between atoms: _547  and  _550
REMARK  224  A    between atoms: _550  and  _551
REMARK  225  A    between atoms: _555  and  _556
REMARK  226  A    between atoms: _561  and  _563
REMARK  227  A    between atoms: _563  and  _564
REMARK  228  A    between atoms: _563  and  _566
REMARK  229  A    between atoms: _569  and  _571
REMARK  230  A    between atoms: _571  and  _572
REMARK  231  A    between atoms: _571  and  _574
REMARK  232  A    between atoms: _574  and  _575
REMARK  233  A    between atoms: _580  and  _582
REMARK  234  A    between atoms: _582  and  _583
REMARK  235  A    between atoms: _582  and  _585
REMARK  236  A    between atoms: _585  and  _586
REMARK  237  A    between atoms: _589  and  _591
REMARK  238  A    between atoms: _591  and  _592
REMARK  239  A    between atoms: _591  and  _594
REMARK  240  A    between atoms: _594  and  _595
REMARK  241  A    between atoms: _598  and  _600
REMARK  242  A    between atoms: _600  and  _601
REMARK  243  A    between atoms: _603  and  _605
REMARK  244  A    between atoms: _605  and  _606
REMARK  245  A    between atoms: _605  and  _608
REMARK  246  A    between atoms: _608  and  _609
REMARK  247  A    between atoms: _609  and  _610
REMARK  248  A    between atoms: _610  and  _611
REMARK  249  A    between atoms: _620  and  _622
REMARK  250  A    between atoms: _622  and  _623
REMARK  251  A    between atoms: _622  and  _625
REMARK  252  A    between atoms: _625  and  _626
REMARK                            x       y       z     vdW  Elec       q    Type
REMARK                         _______ _______ _______ _____ _____    ______ ____
ROOT
ATOM      1  O   HOH     1       9.023  33.795  12.774  0.00  0.00    +0.000 OA
ENDROOT
TORSDOF 0
REMARK  Name = ../refined-set-2016/1w5y/1w5y_pocket.pdb
REMARK  252 active torsions:
REMARK  status: ('A' for Active; 'I' for Inactive)
REMARK    1  A    between atoms: _1  and  _3
REMARK    2  A    between atoms: _3  and  _4
REMARK    3  A    between atoms: _3  and  _6
REMARK    4  A    between atoms: _6  and  _7
REMARK    5  A    between atoms: _7  and  _8
REMARK    6  A    between atoms: _8  and  _9
REMARK    7  A    between atoms: _19  and  _20
REMARK    8  A    between atoms: _25  and  _27
REMARK    9  A    between atoms: _27  and  _28
REMARK   10  A    between atoms: _27  and  _30
REMARK   11  A    between atoms: _30  and  _31
REMARK   12  A    between atoms: _34  and  _36
REMARK   13  A    between atoms: _36  and  _37
REMARK   14  A    between atoms: _36  and  _39
REMARK   15  A    between atoms: _39  and  _40
REMARK   16  A    between atoms: _43  and  _45
REMARK   17  A    between atoms: _45  and  _46
REMARK   18  A    between atoms: _45  and  _48
REMARK   19  A    between atoms: _48  and  _49
REMARK   20  A    between atoms: _52  and  _54
REMARK   21  A    between atoms: _54  and  _55
REMARK   22  A    between atoms: _54  and  _57
REMARK   23  A    between atoms: _57  and  _58
REMARK   24  A    between atoms: _61  and  _63
REMARK   25  A    between atoms: _63  and  _64
REMARK   26  A    between atoms: _63  and  _66
REMARK   27  A    between atoms: _66  and  _67
REMARK   28  A    between atoms: _70  and  _72
REMARK   29  A    between atoms: _72  and  _73
REMARK   30  A    between atoms: _75  and  _77
REMARK   31  A    between atoms: _77  and  _78
REMARK   32  A    between atoms: _81  and  _83
REMARK   33  A    between atoms: _83  and  _84
REMARK   34  A    between atoms: _83  and  _86
REMARK   35  A    between atoms: _86  and  _87
REMARK   36  A    between atoms: _90  and  _92
REMARK   37  A    between atoms: _92  and  _93
REMARK   38  A    between atoms: _92  and  _95
REMARK   39  A    between atoms: _95  and  _96
REMARK   40  A    between atoms: _99  and  _101
REMARK   41  A    between atoms: _101  and  _102
REMARK   42  A    between atoms: _101  and  _104
REMARK   43  A    between atoms: _104  and  _105
REMARK   44  A    between atoms: _108  and  _110
REMARK   45  A    between atoms: _110  and  _111
REMARK   46  A    between atoms: _110  and  _113
REMARK   47  A    between atoms: _116  and  _118
REMARK   48  A    between atoms: _118  and  _119
REMARK   49  A    between atoms: _118  and  _121
REMARK   50  A    between atoms: _121  and  _122
REMARK   51  A    between atoms: _125  and  _127
REMARK   52  A    between atoms: _127  and  _128
REMARK   53  A    between atoms: _127  and  _130
REMARK   54  A    between atoms: _130  and  _131
REMARK   55  A    between atoms: _131  and  _132
REMARK   56  A    between atoms: _132  and  _133
REMARK   57  A    between atoms: _133  and  _134
REMARK   58  A    between atoms: _138  and  _140
REMARK   59  A    between atoms: _140  and  _141
REMARK   60  A    between atoms: _140  and  _143
REMARK   61  A    between atoms: _143  and  _144
REMARK   62  A    between atoms: _144  and  _145
REMARK   63  A    between atoms: _147  and  _149
REMARK   64  A    between atoms: _149  and  _150
REMARK   65  A    between atoms: _149  and  _152
REMARK   66  A    between atoms: _152  and  _153
REMARK   67  A    between atoms: _156  and  _158
REMARK   68  A    between atoms: _158  and  _159
REMARK   69  A    between atoms: _161  and  _163
REMARK   70  A    between atoms: _163  and  _164
REMARK   71  A    between atoms: _166  and  _168
REMARK   72  A    between atoms: _168  and  _169
REMARK   73  A    between atoms: _168  and  _171
REMARK   74  A    between atoms: _171  and  _172
REMARK   75  A    between atoms: _175  and  _177
REMARK   76  A    between atoms: _177  and  _178
REMARK   77  A    between atoms: _180  and  _182
REMARK   78  A    between atoms: _182  and  _183
REMARK   79  A    between atoms: _185  and  _187
REMARK   80  A    between atoms: _187  and  _188
REMARK   81  A    between atoms: _187  and  _190
REMARK   82  A    between atoms: _190  and  _191
REMARK   83  A    between atoms: _197  and  _199
REMARK   84  A    between atoms: _199  and  _200
REMARK   85  A    between atoms: _199  and  _202
REMARK   86  A    between atoms: _202  and  _203
REMARK   87  A    between atoms: _206  and  _208
REMARK   88  A    between atoms: _208  and  _209
REMARK   89  A    between atoms: _208  and  _211
REMARK   90  A    between atoms: _214  and  _216
REMARK   91  A    between atoms: _216  and  _217
REMARK   92  A    between atoms: _216  and  _219
REMARK   93  A    between atoms: _219  and  _220
REMARK   94  A    between atoms: _224  and  _225
REMARK   95  A    between atoms: _230  and  _232
REMARK   96  A    between atoms: _232  and  _233
REMARK   97  A    between atoms: _232  and  _235
REMARK   98  A    between atoms: _235  and  _236
REMARK   99  A    between atoms: _240  and  _241
REMARK  100  A    between atoms: _246  and  _248
REMARK  101  A    between atoms: _248  and  _249
REMARK  102  A    between atoms: _248  and  _251
REMARK  103  A    between atoms: _254  and  _256
REMARK  104  A    between atoms: _256  and  _257
REMARK  105  A    between atoms: _256  and  _259
REMARK  106  A    between atoms: _259  and  _260
REMARK  107  A    between atoms: _265  and  _267
REMARK  108  A    between atoms: _267  and  _268
REMARK  109  A    between atoms: _267  and  _270
REMARK  110  A    between atoms: _270  and  _271
REMARK  111  A    between atoms: _274  and  _276
REMARK  112  A    between atoms: _276  and  _277
REMARK  113  A    between atoms: _276  and  _279
REMARK  114  A    between atoms: _279  and  _280
REMARK  115  A    between atoms: _283  and  _285
REMARK  116  A    between atoms: _285  and  _286
REMARK  117  A    between atoms: _288  and  _290
REMARK  118  A    between atoms: _290  and  _291
REMARK  119  A    between atoms: _290  and  _293
REMARK  120  A    between atoms: _293  and  _294
REMARK  121  A    between atoms: _294  and  _295
REMARK  122  A    between atoms: _295  and  _296
REMARK  123  A    between atoms: _305  and  _307
REMARK  124  A    between atoms: _307  and  _308
REMARK  125  A    between atoms: _307  and  _310
REMARK  126  A    between atoms: _310  and  _311
REMARK  127  A    between atoms: _316  and  _318
REMARK  128  A    between atoms: _318  and  _319
REMARK  129  A    between atoms: _318  and  _321
REMARK  130  A    between atoms: _321  and  _322
REMARK  131  A    between atoms: _322  and  _323
REMARK  132  A    between atoms: _323  and  _324
REMARK  133  A    between atoms: _334  and  _335
REMARK  134  A    between atoms: _340  and  _342
REMARK  135  A    between atoms: _342  and  _343
REMARK  136  A    between atoms: _342  and  _345
REMARK  137  A    between atoms: _345  and  _346
REMARK  138  A    between atoms: _349  and  _351
REMARK  139  A    between atoms: _351  and  _352
REMARK  140  A    between atoms: _351  and  _354
REMARK  141  A    between atoms: _354  and  _355
REMARK  142  A    between atoms: _358  and  _360
REMARK  143  A    between atoms: _360  and  _361
REMARK  144  A    between atoms: _360  and  _363
REMARK  145  A    between atoms: _363  and  _364
REMARK  146  A    between atoms: _367  and  _369
REMARK  147  A    between atoms: _369  and  _370
REMARK  148  A    between atoms: _369  and  _372
REMARK  149  A    between atoms: _372  and  _373
REMARK  150  A    between atoms: _376  and  _378
REMARK  151  A    between atoms: _378  and  _379
REMARK  152  A    between atoms: _378  and  _381
REMARK  153  A    between atoms: _381  and  _382
REMARK  154  A    between atoms: _385  and  _387
REMARK  155  A    between atoms: _387  and  _388
REMARK  156  A    between atoms: _390  and  _392
REMARK  157  A    between atoms: _392  and  _393
REMARK  158  A    between atoms: _396  and  _398
REMARK  159  A    between atoms: _398  and  _399
REMARK  160  A    between atoms: _398  and  _401
REMARK  161  A    between atoms: _401  and  _402
REMARK  162  A    between atoms: _405  and  _407
REMARK  163  A    between atoms: _407  and  _408
REMARK  164  A    between atoms: _407  and  _410
REMARK  165  A    between atoms: _410  and  _411
REMARK  166  A    between atoms: _414  and  _416
REMARK  167  A    between atoms: _416  and  _417
REMARK  168  A    between atoms: _416  and  _419
REMARK  169  A    between atoms: _419  and  _420
REMARK  170  A    between atoms: _423  and  _425
REMARK  171  A    between atoms: _425  and  _426
REMARK  172  A    between atoms: _425  and  _428
REMARK  173  A    between atoms: _431  and  _433
REMARK  174  A    between atoms: _433  and  _434
REMARK  175  A    between atoms: _433  and  _436
REMARK  176  A    between atoms: _436  and  _437
REMARK  177  A    between atoms: _440  and  _442
REMARK  178  A    between atoms: _442  and  _443
REMARK  179  A    between atoms: _442  and  _445
REMARK  180  A    between atoms: _445  and  _446
REMARK  181  A    between atoms: _446  and  _447
REMARK  182  A    between atoms: _447  and  _448
REMARK  183  A    between atoms: _448  and  _449
REMARK  184  A    between atoms: _453  and  _455
REMARK  185  A    between atoms: _455  and  _456
REMARK  186  A    between atoms: _455  and  _458
REMARK  187  A    between atoms: _458  and  _459
REMARK  188  A    between atoms: _459  and  _460
REMARK  189  A    between atoms: _462  and  _464
REMARK  190  A    between atoms: _464  and  _465
REMARK  191  A    between atoms: _464  and  _467
REMARK  192  A    between atoms: _467  and  _468
REMARK  193  A    between atoms: _471  and  _473
REMARK  194  A    between atoms: _473  and  _474
REMARK  195  A    between atoms: _476  and  _478
REMARK  196  A    between atoms: _478  and  _479
REMARK  197  A    between atoms: _481  and  _483
REMARK  198  A    between atoms: _483  and  _484
REMARK  199  A    between atoms: _483  and  _486
REMARK  200  A    between atoms: _486  and  _487
REMARK  201  A    between atoms: _490  and  _492
REMARK  202  A    between atoms: _492  and  _493
REMARK  203  A    between atoms: _495  and  _497
REMARK  204  A    between atoms: _497  and  _498
REMARK  205  A    between atoms: _500  and  _502
REMARK  206  A    between atoms: _502  and  _503
REMARK  207  A    between atoms: _502  and  _505
REMARK  208  A    between atoms: _505  and  _506
REMARK  209  A    between atoms: _512  and  _514
REMARK  210  A    between atoms: _514  and  _515
REMARK  211  A    between atoms: _514  and  _517
REMARK  212  A    between atoms: _517  and  _518
REMARK  213  A    between atoms: _521  and  _523
REMARK  214  A    between atoms: _523  and  _524
REMARK  215  A    between atoms: _523  and  _526
REMARK  216  A    between atoms: _529  and  _531
REMARK  217  A    between atoms: _531  and  _532
REMARK  218  A    between atoms: _531  and  _534
REMARK  219  A    between atoms: _534  and  _535
REMARK  220  A    between atoms: _539  and  _540
REMARK  221  A    between atoms: _545  and  _547
REMARK  222  A    between atoms: _547  and  _548
REMARK  223  A    between atoms: _547  and  _550
REMARK  224  A    between atoms: _550  and  _551
REMARK  225  A    between atoms: _555  and  _556
REMARK  226  A    between atoms: _561  and  _563
REMARK  227  A    between atoms: _563  and  _564
REMARK  228  A    between atoms: _563  and  _566
REMARK  229  A    between atoms: _569  and  _571
REMARK  230  A    between atoms: _571  and  _572
REMARK  231  A    between atoms: _571  and  _574
REMARK  232  A    between atoms: _574  and  _575
REMARK  233  A    between atoms: _580  and  _582
REMARK  234  A    between atoms: _582  and  _583
REMARK  235  A    between atoms: _582  and  _585
REMARK  236  A    between atoms: _585  and  _586
REMARK  237  A    between atoms: _589  and  _591
REMARK  238  A    between atoms: _591  and  _592
REMARK  239  A    between atoms: _591  and  _594
REMARK  240  A    between atoms: _594  and  _595
REMARK  241  A    between atoms: _598  and  _600
REMARK  242  A    between atoms: _600  and  _601
REMARK  243  A    between atoms: _603  and  _605
REMARK  244  A    between atoms: _605  and  _606
REMARK  245  A    between atoms: _605  and  _608
REMARK  246  A    between atoms: _608  and  _609
REMARK  247  A    between atoms: _609  and  _610
REMARK  248  A    between atoms: _610  and  _611
REMARK  249  A    between atoms: _620  and  _622
REMARK  250  A    between atoms: _622  and  _623
REMARK  251  A    between atoms: _622  and  _625
REMARK  252  A    between atoms: _625  and  _626
REMARK                            x       y       z     vdW  Elec       q    Type
REMARK                         _______ _______ _______ _____ _____    ______ ____
ROOT
ATOM      1  O   HOH     1       3.622  26.348   7.478  0.00  0.00    +0.000 OA
ENDROOT
TORSDOF 0
REMARK  Name = ../refined-set-2016/1w5y/1w5y_pocket.pdb
REMARK  252 active torsions:
REMARK  status: ('A' for Active; 'I' for Inactive)
REMARK    1  A    between atoms: _1  and  _3
REMARK    2  A    between atoms: _3  and  _4
REMARK    3  A    between atoms: _3  and  _6
REMARK    4  A    between atoms: _6  and  _7
REMARK    5  A    between atoms: _7  and  _8
REMARK    6  A    between atoms: _8  and  _9
REMARK    7  A    between atoms: _19  and  _20
REMARK    8  A    between atoms: _25  and  _27
REMARK    9  A    between atoms: _27  and  _28
REMARK   10  A    between atoms: _27  and  _30
REMARK   11  A    between atoms: _30  and  _31
REMARK   12  A    between atoms: _34  and  _36
REMARK   13  A    between atoms: _36  and  _37
REMARK   14  A    between atoms: _36  and  _39
REMARK   15  A    between atoms: _39  and  _40
REMARK   16  A    between atoms: _43  and  _45
REMARK   17  A    between atoms: _45  and  _46
REMARK   18  A    between atoms: _45  and  _48
REMARK   19  A    between atoms: _48  and  _49
REMARK   20  A    between atoms: _52  and  _54
REMARK   21  A    between atoms: _54  and  _55
REMARK   22  A    between atoms: _54  and  _57
REMARK   23  A    between atoms: _57  and  _58
REMARK   24  A    between atoms: _61  and  _63
REMARK   25  A    between atoms: _63  and  _64
REMARK   26  A    between atoms: _63  and  _66
REMARK   27  A    between atoms: _66  and  _67
REMARK   28  A    between atoms: _70  and  _72
REMARK   29  A    between atoms: _72  and  _73
REMARK   30  A    between atoms: _75  and  _77
REMARK   31  A    between atoms: _77  and  _78
REMARK   32  A    between atoms: _81  and  _83
REMARK   33  A    between atoms: _83  and  _84
REMARK   34  A    between atoms: _83  and  _86
REMARK   35  A    between atoms: _86  and  _87
REMARK   36  A    between atoms: _90  and  _92
REMARK   37  A    between atoms: _92  and  _93
REMARK   38  A    between atoms: _92  and  _95
REMARK   39  A    between atoms: _95  and  _96
REMARK   40  A    between atoms: _99  and  _101
REMARK   41  A    between atoms: _101  and  _102
REMARK   42  A    between atoms: _101  and  _104
REMARK   43  A    between atoms: _104  and  _105
REMARK   44  A    between atoms: _108  and  _110
REMARK   45  A    between atoms: _110  and  _111
REMARK   46  A    between atoms: _110  and  _113
REMARK   47  A    between atoms: _116  and  _118
REMARK   48  A    between atoms: _118  and  _119
REMARK   49  A    between atoms: _118  and  _121
REMARK   50  A    between atoms: _121  and  _122
REMARK   51  A    between atoms: _125  and  _127
REMARK   52  A    between atoms: _127  and  _128
REMARK   53  A    between atoms: _127  and  _130
REMARK   54  A    between atoms: _130  and  _131
REMARK   55  A    between atoms: _131  and  _132
REMARK   56  A    between atoms: _132  and  _133
REMARK   57  A    between atoms: _133  and  _134
REMARK   58  A    between atoms: _138  and  _140
REMARK   59  A    between atoms: _140  and  _141
REMARK   60  A    between atoms: _140  and  _143
REMARK   61  A    between atoms: _143  and  _144
REMARK   62  A    between atoms: _144  and  _145
REMARK   63  A    between atoms: _147  and  _149
REMARK   64  A    between atoms: _149  and  _150
REMARK   65  A    between atoms: _149  and  _152
REMARK   66  A    between atoms: _152  and  _153
REMARK   67  A    between atoms: _156  and  _158
REMARK   68  A    between atoms: _158  and  _159
REMARK   69  A    between atoms: _161  and  _163
REMARK   70  A    between atoms: _163  and  _164
REMARK   71  A    between atoms: _166  and  _168
REMARK   72  A    between atoms: _168  and  _169
REMARK   73  A    between atoms: _168  and  _171
REMARK   74  A    between atoms: _171  and  _172
REMARK   75  A    between atoms: _175  and  _177
REMARK   76  A    between atoms: _177  and  _178
REMARK   77  A    between atoms: _180  and  _182
REMARK   78  A    between atoms: _182  and  _183
REMARK   79  A    between atoms: _185  and  _187
REMARK   80  A    between atoms: _187  and  _188
REMARK   81  A    between atoms: _187  and  _190
REMARK   82  A    between atoms: _190  and  _191
REMARK   83  A    between atoms: _197  and  _199
REMARK   84  A    between atoms: _199  and  _200
REMARK   85  A    between atoms: _199  and  _202
REMARK   86  A    between atoms: _202  and  _203
REMARK   87  A    between atoms: _206  and  _208
REMARK   88  A    between atoms: _208  and  _209
REMARK   89  A    between atoms: _208  and  _211
REMARK   90  A    between atoms: _214  and  _216
REMARK   91  A    between atoms: _216  and  _217
REMARK   92  A    between atoms: _216  and  _219
REMARK   93  A    between atoms: _219  and  _220
REMARK   94  A    between atoms: _224  and  _225
REMARK   95  A    between atoms: _230  and  _232
REMARK   96  A    between atoms: _232  and  _233
REMARK   97  A    between atoms: _232  and  _235
REMARK   98  A    between atoms: _235  and  _236
REMARK   99  A    between atoms: _240  and  _241
REMARK  100  A    between atoms: _246  and  _248
REMARK  101  A    between atoms: _248  and  _249
REMARK  102  A    between atoms: _248  and  _251
REMARK  103  A    between atoms: _254  and  _256
REMARK  104  A    between atoms: _256  and  _257
REMARK  105  A    between atoms: _256  and  _259
REMARK  106  A    between atoms: _259  and  _260
REMARK  107  A    between atoms: _265  and  _267
REMARK  108  A    between atoms: _267  and  _268
REMARK  109  A    between atoms: _267  and  _270
REMARK  110  A    between atoms: _270  and  _271
REMARK  111  A    between atoms: _274  and  _276
REMARK  112  A    between atoms: _276  and  _277
REMARK  113  A    between atoms: _276  and  _279
REMARK  114  A    between atoms: _279  and  _280
REMARK  115  A    between atoms: _283  and  _285
REMARK  116  A    between atoms: _285  and  _286
REMARK  117  A    between atoms: _288  and  _290
REMARK  118  A    between atoms: _290  and  _291
REMARK  119  A    between atoms: _290  and  _293
REMARK  120  A    between atoms: _293  and  _294
REMARK  121  A    between atoms: _294  and  _295
REMARK  122  A    between atoms: _295  and  _296
REMARK  123  A    between atoms: _305  and  _307
REMARK  124  A    between atoms: _307  and  _308
REMARK  125  A    between atoms: _307  and  _310
REMARK  126  A    between atoms: _310  and  _311
REMARK  127  A    between atoms: _316  and  _318
REMARK  128  A    between atoms: _318  and  _319
REMARK  129  A    between atoms: _318  and  _321
REMARK  130  A    between atoms: _321  and  _322
REMARK  131  A    between atoms: _322  and  _323
REMARK  132  A    between atoms: _323  and  _324
REMARK  133  A    between atoms: _334  and  _335
REMARK  134  A    between atoms: _340  and  _342
REMARK  135  A    between atoms: _342  and  _343
REMARK  136  A    between atoms: _342  and  _345
REMARK  137  A    between atoms: _345  and  _346
REMARK  138  A    between atoms: _349  and  _351
REMARK  139  A    between atoms: _351  and  _352
REMARK  140  A    between atoms: _351  and  _354
REMARK  141  A    between atoms: _354  and  _355
REMARK  142  A    between atoms: _358  and  _360
REMARK  143  A    between atoms: _360  and  _361
REMARK  144  A    between atoms: _360  and  _363
REMARK  145  A    between atoms: _363  and  _364
REMARK  146  A    between atoms: _367  and  _369
REMARK  147  A    between atoms: _369  and  _370
REMARK  148  A    between atoms: _369  and  _372
REMARK  149  A    between atoms: _372  and  _373
REMARK  150  A    between atoms: _376  and  _378
REMARK  151  A    between atoms: _378  and  _379
REMARK  152  A    between atoms: _378  and  _381
REMARK  153  A    between atoms: _381  and  _382
REMARK  154  A    between atoms: _385  and  _387
REMARK  155  A    between atoms: _387  and  _388
REMARK  156  A    between atoms: _390  and  _392
REMARK  157  A    between atoms: _392  and  _393
REMARK  158  A    between atoms: _396  and  _398
REMARK  159  A    between atoms: _398  and  _399
REMARK  160  A    between atoms: _398  and  _401
REMARK  161  A    between atoms: _401  and  _402
REMARK  162  A    between atoms: _405  and  _407
REMARK  163  A    between atoms: _407  and  _408
REMARK  164  A    between atoms: _407  and  _410
REMARK  165  A    between atoms: _410  and  _411
REMARK  166  A    between atoms: _414  and  _416
REMARK  167  A    between atoms: _416  and  _417
REMARK  168  A    between atoms: _416  and  _419
REMARK  169  A    between atoms: _419  and  _420
REMARK  170  A    between atoms: _423  and  _425
REMARK  171  A    between atoms: _425  and  _426
REMARK  172  A    between atoms: _425  and  _428
REMARK  173  A    between atoms: _431  and  _433
REMARK  174  A    between atoms: _433  and  _434
REMARK  175  A    between atoms: _433  and  _436
REMARK  176  A    between atoms: _436  and  _437
REMARK  177  A    between atoms: _440  and  _442
REMARK  178  A    between atoms: _442  and  _443
REMARK  179  A    between atoms: _442  and  _445
REMARK  180  A    between atoms: _445  and  _446
REMARK  181  A    between atoms: _446  and  _447
REMARK  182  A    between atoms: _447  and  _448
REMARK  183  A    between atoms: _448  and  _449
REMARK  184  A    between atoms: _453  and  _455
REMARK  185  A    between atoms: _455  and  _456
REMARK  186  A    between atoms: _455  and  _458
REMARK  187  A    between atoms: _458  and  _459
REMARK  188  A    between atoms: _459  and  _460
REMARK  189  A    between atoms: _462  and  _464
REMARK  190  A    between atoms: _464  and  _465
REMARK  191  A    between atoms: _464  and  _467
REMARK  192  A    between atoms: _467  and  _468
REMARK  193  A    between atoms: _471  and  _473
REMARK  194  A    between atoms: _473  and  _474
REMARK  195  A    between atoms: _476  and  _478
REMARK  196  A    between atoms: _478  and  _479
REMARK  197  A    between atoms: _481  and  _483
REMARK  198  A    between atoms: _483  and  _484
REMARK  199  A    between atoms: _483  and  _486
REMARK  200  A    between atoms: _486  and  _487
REMARK  201  A    between atoms: _490  and  _492
REMARK  202  A    between atoms: _492  and  _493
REMARK  203  A    between atoms: _495  and  _497
REMARK  204  A    between atoms: _497  and  _498
REMARK  205  A    between atoms: _500  and  _502
REMARK  206  A    between atoms: _502  and  _503
REMARK  207  A    between atoms: _502  and  _505
REMARK  208  A    between atoms: _505  and  _506
REMARK  209  A    between atoms: _512  and  _514
REMARK  210  A    between atoms: _514  and  _515
REMARK  211  A    between atoms: _514  and  _517
REMARK  212  A    between atoms: _517  and  _518
REMARK  213  A    between atoms: _521  and  _523
REMARK  214  A    between atoms: _523  and  _524
REMARK  215  A    between atoms: _523  and  _526
REMARK  216  A    between atoms: _529  and  _531
REMARK  217  A    between atoms: _531  and  _532
REMARK  218  A    between atoms: _531  and  _534
REMARK  219  A    between atoms: _534  and  _535
REMARK  220  A    between atoms: _539  and  _540
REMARK  221  A    between atoms: _545  and  _547
REMARK  222  A    between atoms: _547  and  _548
REMARK  223  A    between atoms: _547  and  _550
REMARK  224  A    between atoms: _550  and  _551
REMARK  225  A    between atoms: _555  and  _556
REMARK  226  A    between atoms: _561  and  _563
REMARK  227  A    between atoms: _563  and  _564
REMARK  228  A    between atoms: _563  and  _566
REMARK  229  A    between atoms: _569  and  _571
REMARK  230  A    between atoms: _571  and  _572
REMARK  231  A    between atoms: _571  and  _574
REMARK  232  A    between atoms: _574  and  _575
REMARK  233  A    between atoms: _580  and  _582
REMARK  234  A    between atoms: _582  and  _583
REMARK  235  A    between atoms: _582  and  _585
REMARK  236  A    between atoms: _585  and  _586
REMARK  237  A    between atoms: _589  and  _591
REMARK  238  A    between atoms: _591  and  _592
REMARK  239  A    between atoms: _591  and  _594
REMARK  240  A    between atoms: _594  and  _595
REMARK  241  A    between atoms: _598  and  _600
REMARK  242  A    between atoms: _600  and  _601
REMARK  243  A    between atoms: _603  and  _605
REMARK  244  A    between atoms: _605  and  _606
REMARK  245  A    between atoms: _605  and  _608
REMARK  246  A    between atoms: _608  and  _609
REMARK  247  A    between atoms: _609  and  _610
REMARK  248  A    between atoms: _610  and  _611
REMARK  249  A    between atoms: _620  and  _622
REMARK  250  A    between atoms: _622  and  _623
REMARK  251  A    between atoms: _622  and  _625
REMARK  252  A    between atoms: _625  and  _626
REMARK                            x       y       z     vdW  Elec       q    Type
REMARK                         _______ _______ _______ _____ _____    ______ ____
ROOT
ATOM      1  O   HOH     1       4.807  25.287   4.920  0.00  0.00    +0.000 OA
ENDROOT
TORSDOF 0
REMARK  Name = ../refined-set-2016/1w5y/1w5y_pocket.pdb
REMARK  252 active torsions:
REMARK  status: ('A' for Active; 'I' for Inactive)
REMARK    1  A    between atoms: _1  and  _3
REMARK    2  A    between atoms: _3  and  _4
REMARK    3  A    between atoms: _3  and  _6
REMARK    4  A    between atoms: _6  and  _7
REMARK    5  A    between atoms: _7  and  _8
REMARK    6  A    between atoms: _8  and  _9
REMARK    7  A    between atoms: _19  and  _20
REMARK    8  A    between atoms: _25  and  _27
REMARK    9  A    between atoms: _27  and  _28
REMARK   10  A    between atoms: _27  and  _30
REMARK   11  A    between atoms: _30  and  _31
REMARK   12  A    between atoms: _34  and  _36
REMARK   13  A    between atoms: _36  and  _37
REMARK   14  A    between atoms: _36  and  _39
REMARK   15  A    between atoms: _39  and  _40
REMARK   16  A    between atoms: _43  and  _45
REMARK   17  A    between atoms: _45  and  _46
REMARK   18  A    between atoms: _45  and  _48
REMARK   19  A    between atoms: _48  and  _49
REMARK   20  A    between atoms: _52  and  _54
REMARK   21  A    between atoms: _54  and  _55
REMARK   22  A    between atoms: _54  and  _57
REMARK   23  A    between atoms: _57  and  _58
REMARK   24  A    between atoms: _61  and  _63
REMARK   25  A    between atoms: _63  and  _64
REMARK   26  A    between atoms: _63  and  _66
REMARK   27  A    between atoms: _66  and  _67
REMARK   28  A    between atoms: _70  and  _72
REMARK   29  A    between atoms: _72  and  _73
REMARK   30  A    between atoms: _75  and  _77
REMARK   31  A    between atoms: _77  and  _78
REMARK   32  A    between atoms: _81  and  _83
REMARK   33  A    between atoms: _83  and  _84
REMARK   34  A    between atoms: _83  and  _86
REMARK   35  A    between atoms: _86  and  _87
REMARK   36  A    between atoms: _90  and  _92
REMARK   37  A    between atoms: _92  and  _93
REMARK   38  A    between atoms: _92  and  _95
REMARK   39  A    between atoms: _95  and  _96
REMARK   40  A    between atoms: _99  and  _101
REMARK   41  A    between atoms: _101  and  _102
REMARK   42  A    between atoms: _101  and  _104
REMARK   43  A    between atoms: _104  and  _105
REMARK   44  A    between atoms: _108  and  _110
REMARK   45  A    between atoms: _110  and  _111
REMARK   46  A    between atoms: _110  and  _113
REMARK   47  A    between atoms: _116  and  _118
REMARK   48  A    between atoms: _118  and  _119
REMARK   49  A    between atoms: _118  and  _121
REMARK   50  A    between atoms: _121  and  _122
REMARK   51  A    between atoms: _125  and  _127
REMARK   52  A    between atoms: _127  and  _128
REMARK   53  A    between atoms: _127  and  _130
REMARK   54  A    between atoms: _130  and  _131
REMARK   55  A    between atoms: _131  and  _132
REMARK   56  A    between atoms: _132  and  _133
REMARK   57  A    between atoms: _133  and  _134
REMARK   58  A    between atoms: _138  and  _140
REMARK   59  A    between atoms: _140  and  _141
REMARK   60  A    between atoms: _140  and  _143
REMARK   61  A    between atoms: _143  and  _144
REMARK   62  A    between atoms: _144  and  _145
REMARK   63  A    between atoms: _147  and  _149
REMARK   64  A    between atoms: _149  and  _150
REMARK   65  A    between atoms: _149  and  _152
REMARK   66  A    between atoms: _152  and  _153
REMARK   67  A    between atoms: _156  and  _158
REMARK   68  A    between atoms: _158  and  _159
REMARK   69  A    between atoms: _161  and  _163
REMARK   70  A    between atoms: _163  and  _164
REMARK   71  A    between atoms: _166  and  _168
REMARK   72  A    between atoms: _168  and  _169
REMARK   73  A    between atoms: _168  and  _171
REMARK   74  A    between atoms: _171  and  _172
REMARK   75  A    between atoms: _175  and  _177
REMARK   76  A    between atoms: _177  and  _178
REMARK   77  A    between atoms: _180  and  _182
REMARK   78  A    between atoms: _182  and  _183
REMARK   79  A    between atoms: _185  and  _187
REMARK   80  A    between atoms: _187  and  _188
REMARK   81  A    between atoms: _187  and  _190
REMARK   82  A    between atoms: _190  and  _191
REMARK   83  A    between atoms: _197  and  _199
REMARK   84  A    between atoms: _199  and  _200
REMARK   85  A    between atoms: _199  and  _202
REMARK   86  A    between atoms: _202  and  _203
REMARK   87  A    between atoms: _206  and  _208
REMARK   88  A    between atoms: _208  and  _209
REMARK   89  A    between atoms: _208  and  _211
REMARK   90  A    between atoms: _214  and  _216
REMARK   91  A    between atoms: _216  and  _217
REMARK   92  A    between atoms: _216  and  _219
REMARK   93  A    between atoms: _219  and  _220
REMARK   94  A    between atoms: _224  and  _225
REMARK   95  A    between atoms: _230  and  _232
REMARK   96  A    between atoms: _232  and  _233
REMARK   97  A    between atoms: _232  and  _235
REMARK   98  A    between atoms: _235  and  _236
REMARK   99  A    between atoms: _240  and  _241
REMARK  100  A    between atoms: _246  and  _248
REMARK  101  A    between atoms: _248  and  _249
REMARK  102  A    between atoms: _248  and  _251
REMARK  103  A    between atoms: _254  and  _256
REMARK  104  A    between atoms: _256  and  _257
REMARK  105  A    between atoms: _256  and  _259
REMARK  106  A    between atoms: _259  and  _260
REMARK  107  A    between atoms: _265  and  _267
REMARK  108  A    between atoms: _267  and  _268
REMARK  109  A    between atoms: _267  and  _270
REMARK  110  A    between atoms: _270  and  _271
REMARK  111  A    between atoms: _274  and  _276
REMARK  112  A    between atoms: _276  and  _277
REMARK  113  A    between atoms: _276  and  _279
REMARK  114  A    between atoms: _279  and  _280
REMARK  115  A    between atoms: _283  and  _285
REMARK  116  A    between atoms: _285  and  _286
REMARK  117  A    between atoms: _288  and  _290
REMARK  118  A    between atoms: _290  and  _291
REMARK  119  A    between atoms: _290  and  _293
REMARK  120  A    between atoms: _293  and  _294
REMARK  121  A    between atoms: _294  and  _295
REMARK  122  A    between atoms: _295  and  _296
REMARK  123  A    between atoms: _305  and  _307
REMARK  124  A    between atoms: _307  and  _308
REMARK  125  A    between atoms: _307  and  _310
REMARK  126  A    between atoms: _310  and  _311
REMARK  127  A    between atoms: _316  and  _318
REMARK  128  A    between atoms: _318  and  _319
REMARK  129  A    between atoms: _318  and  _321
REMARK  130  A    between atoms: _321  and  _322
REMARK  131  A    between atoms: _322  and  _323
REMARK  132  A    between atoms: _323  and  _324
REMARK  133  A    between atoms: _334  and  _335
REMARK  134  A    between atoms: _340  and  _342
REMARK  135  A    between atoms: _342  and  _343
REMARK  136  A    between atoms: _342  and  _345
REMARK  137  A    between atoms: _345  and  _346
REMARK  138  A    between atoms: _349  and  _351
REMARK  139  A    between atoms: _351  and  _352
REMARK  140  A    between atoms: _351  and  _354
REMARK  141  A    between atoms: _354  and  _355
REMARK  142  A    between atoms: _358  and  _360
REMARK  143  A    between atoms: _360  and  _361
REMARK  144  A    between atoms: _360  and  _363
REMARK  145  A    between atoms: _363  and  _364
REMARK  146  A    between atoms: _367  and  _369
REMARK  147  A    between atoms: _369  and  _370
REMARK  148  A    between atoms: _369  and  _372
REMARK  149  A    between atoms: _372  and  _373
REMARK  150  A    between atoms: _376  and  _378
REMARK  151  A    between atoms: _378  and  _379
REMARK  152  A    between atoms: _378  and  _381
REMARK  153  A    between atoms: _381  and  _382
REMARK  154  A    between atoms: _385  and  _387
REMARK  155  A    between atoms: _387  and  _388
REMARK  156  A    between atoms: _390  and  _392
REMARK  157  A    between atoms: _392  and  _393
REMARK  158  A    between atoms: _396  and  _398
REMARK  159  A    between atoms: _398  and  _399
REMARK  160  A    between atoms: _398  and  _401
REMARK  161  A    between atoms: _401  and  _402
REMARK  162  A    between atoms: _405  and  _407
REMARK  163  A    between atoms: _407  and  _408
REMARK  164  A    between atoms: _407  and  _410
REMARK  165  A    between atoms: _410  and  _411
REMARK  166  A    between atoms: _414  and  _416
REMARK  167  A    between atoms: _416  and  _417
REMARK  168  A    between atoms: _416  and  _419
REMARK  169  A    between atoms: _419  and  _420
REMARK  170  A    between atoms: _423  and  _425
REMARK  171  A    between atoms: _425  and  _426
REMARK  172  A    between atoms: _425  and  _428
REMARK  173  A    between atoms: _431  and  _433
REMARK  174  A    between atoms: _433  and  _434
REMARK  175  A    between atoms: _433  and  _436
REMARK  176  A    between atoms: _436  and  _437
REMARK  177  A    between atoms: _440  and  _442
REMARK  178  A    between atoms: _442  and  _443
REMARK  179  A    between atoms: _442  and  _445
REMARK  180  A    between atoms: _445  and  _446
REMARK  181  A    between atoms: _446  and  _447
REMARK  182  A    between atoms: _447  and  _448
REMARK  183  A    between atoms: _448  and  _449
REMARK  184  A    between atoms: _453  and  _455
REMARK  185  A    between atoms: _455  and  _456
REMARK  186  A    between atoms: _455  and  _458
REMARK  187  A    between atoms: _458  and  _459
REMARK  188  A    between atoms: _459  and  _460
REMARK  189  A    between atoms: _462  and  _464
REMARK  190  A    between atoms: _464  and  _465
REMARK  191  A    between atoms: _464  and  _467
REMARK  192  A    between atoms: _467  and  _468
REMARK  193  A    between atoms: _471  and  _473
REMARK  194  A    between atoms: _473  and  _474
REMARK  195  A    between atoms: _476  and  _478
REMARK  196  A    between atoms: _478  and  _479
REMARK  197  A    between atoms: _481  and  _483
REMARK  198  A    between atoms: _483  and  _484
REMARK  199  A    between atoms: _483  and  _486
REMARK  200  A    between atoms: _486  and  _487
REMARK  201  A    between atoms: _490  and  _492
REMARK  202  A    between atoms: _492  and  _493
REMARK  203  A    between atoms: _495  and  _497
REMARK  204  A    between atoms: _497  and  _498
REMARK  205  A    between atoms: _500  and  _502
REMARK  206  A    between atoms: _502  and  _503
REMARK  207  A    between atoms: _502  and  _505
REMARK  208  A    between atoms: _505  and  _506
REMARK  209  A    between atoms: _512  and  _514
REMARK  210  A    between atoms: _514  and  _515
REMARK  211  A    between atoms: _514  and  _517
REMARK  212  A    between atoms: _517  and  _518
REMARK  213  A    between atoms: _521  and  _523
REMARK  214  A    between atoms: _523  and  _524
REMARK  215  A    between atoms: _523  and  _526
REMARK  216  A    between atoms: _529  and  _531
REMARK  217  A    between atoms: _531  and  _532
REMARK  218  A    between atoms: _531  and  _534
REMARK  219  A    between atoms: _534  and  _535
REMARK  220  A    between atoms: _539  and  _540
REMARK  221  A    between atoms: _545  and  _547
REMARK  222  A    between atoms: _547  and  _548
REMARK  223  A    between atoms: _547  and  _550
REMARK  224  A    between atoms: _550  and  _551
REMARK  225  A    between atoms: _555  and  _556
REMARK  226  A    between atoms: _561  and  _563
REMARK  227  A    between atoms: _563  and  _564
REMARK  228  A    between atoms: _563  and  _566
REMARK  229  A    between atoms: _569  and  _571
REMARK  230  A    between atoms: _571  and  _572
REMARK  231  A    between atoms: _571  and  _574
REMARK  232  A    between atoms: _574  and  _575
REMARK  233  A    between atoms: _580  and  _582
REMARK  234  A    between atoms: _582  and  _583
REMARK  235  A    between atoms: _582  and  _585
REMARK  236  A    between atoms: _585  and  _586
REMARK  237  A    between atoms: _589  and  _591
REMARK  238  A    between atoms: _591  and  _592
REMARK  239  A    between atoms: _591  and  _594
REMARK  240  A    between atoms: _594  and  _595
REMARK  241  A    between atoms: _598  and  _600
REMARK  242  A    between atoms: _600  and  _601
REMARK  243  A    between atoms: _603  and  _605
REMARK  244  A    between atoms: _605  and  _606
REMARK  245  A    between atoms: _605  and  _608
REMARK  246  A    between atoms: _608  and  _609
REMARK  247  A    between atoms: _609  and  _610
REMARK  248  A    between atoms: _610  and  _611
REMARK  249  A    between atoms: _620  and  _622
REMARK  250  A    between atoms: _622  and  _623
REMARK  251  A    between atoms: _622  and  _625
REMARK  252  A    between atoms: _625  and  _626
REMARK                            x       y       z     vdW  Elec       q    Type
REMARK                         _______ _______ _______ _____ _____    ______ ____
ROOT
ATOM      1  O   HOH     1       6.809  16.063   3.601  0.00  0.00    +0.000 OA
ENDROOT
TORSDOF 0
REMARK  Name = ../refined-set-2016/1w5y/1w5y_pocket.pdb
REMARK  252 active torsions:
REMARK  status: ('A' for Active; 'I' for Inactive)
REMARK    1  A    between atoms: _1  and  _3
REMARK    2  A    between atoms: _3  and  _4
REMARK    3  A    between atoms: _3  and  _6
REMARK    4  A    between atoms: _6  and  _7
REMARK    5  A    between atoms: _7  and  _8
REMARK    6  A    between atoms: _8  and  _9
REMARK    7  A    between atoms: _19  and  _20
REMARK    8  A    between atoms: _25  and  _27
REMARK    9  A    between atoms: _27  and  _28
REMARK   10  A    between atoms: _27  and  _30
REMARK   11  A    between atoms: _30  and  _31
REMARK   12  A    between atoms: _34  and  _36
REMARK   13  A    between atoms: _36  and  _37
REMARK   14  A    between atoms: _36  and  _39
REMARK   15  A    between atoms: _39  and  _40
REMARK   16  A    between atoms: _43  and  _45
REMARK   17  A    between atoms: _45  and  _46
REMARK   18  A    between atoms: _45  and  _48
REMARK   19  A    between atoms: _48  and  _49
REMARK   20  A    between atoms: _52  and  _54
REMARK   21  A    between atoms: _54  and  _55
REMARK   22  A    between atoms: _54  and  _57
REMARK   23  A    between atoms: _57  and  _58
REMARK   24  A    between atoms: _61  and  _63
REMARK   25  A    between atoms: _63  and  _64
REMARK   26  A    between atoms: _63  and  _66
REMARK   27  A    between atoms: _66  and  _67
REMARK   28  A    between atoms: _70  and  _72
REMARK   29  A    between atoms: _72  and  _73
REMARK   30  A    between atoms: _75  and  _77
REMARK   31  A    between atoms: _77  and  _78
REMARK   32  A    between atoms: _81  and  _83
REMARK   33  A    between atoms: _83  and  _84
REMARK   34  A    between atoms: _83  and  _86
REMARK   35  A    between atoms: _86  and  _87
REMARK   36  A    between atoms: _90  and  _92
REMARK   37  A    between atoms: _92  and  _93
REMARK   38  A    between atoms: _92  and  _95
REMARK   39  A    between atoms: _95  and  _96
REMARK   40  A    between atoms: _99  and  _101
REMARK   41  A    between atoms: _101  and  _102
REMARK   42  A    between atoms: _101  and  _104
REMARK   43  A    between atoms: _104  and  _105
REMARK   44  A    between atoms: _108  and  _110
REMARK   45  A    between atoms: _110  and  _111
REMARK   46  A    between atoms: _110  and  _113
REMARK   47  A    between atoms: _116  and  _118
REMARK   48  A    between atoms: _118  and  _119
REMARK   49  A    between atoms: _118  and  _121
REMARK   50  A    between atoms: _121  and  _122
REMARK   51  A    between atoms: _125  and  _127
REMARK   52  A    between atoms: _127  and  _128
REMARK   53  A    between atoms: _127  and  _130
REMARK   54  A    between atoms: _130  and  _131
REMARK   55  A    between atoms: _131  and  _132
REMARK   56  A    between atoms: _132  and  _133
REMARK   57  A    between atoms: _133  and  _134
REMARK   58  A    between atoms: _138  and  _140
REMARK   59  A    between atoms: _140  and  _141
REMARK   60  A    between atoms: _140  and  _143
REMARK   61  A    between atoms: _143  and  _144
REMARK   62  A    between atoms: _144  and  _145
REMARK   63  A    between atoms: _147  and  _149
REMARK   64  A    between atoms: _149  and  _150
REMARK   65  A    between atoms: _149  and  _152
REMARK   66  A    between atoms: _152  and  _153
REMARK   67  A    between atoms: _156  and  _158
REMARK   68  A    between atoms: _158  and  _159
REMARK   69  A    between atoms: _161  and  _163
REMARK   70  A    between atoms: _163  and  _164
REMARK   71  A    between atoms: _166  and  _168
REMARK   72  A    between atoms: _168  and  _169
REMARK   73  A    between atoms: _168  and  _171
REMARK   74  A    between atoms: _171  and  _172
REMARK   75  A    between atoms: _175  and  _177
REMARK   76  A    between atoms: _177  and  _178
REMARK   77  A    between atoms: _180  and  _182
REMARK   78  A    between atoms: _182  and  _183
REMARK   79  A    between atoms: _185  and  _187
REMARK   80  A    between atoms: _187  and  _188
REMARK   81  A    between atoms: _187  and  _190
REMARK   82  A    between atoms: _190  and  _191
REMARK   83  A    between atoms: _197  and  _199
REMARK   84  A    between atoms: _199  and  _200
REMARK   85  A    between atoms: _199  and  _202
REMARK   86  A    between atoms: _202  and  _203
REMARK   87  A    between atoms: _206  and  _208
REMARK   88  A    between atoms: _208  and  _209
REMARK   89  A    between atoms: _208  and  _211
REMARK   90  A    between atoms: _214  and  _216
REMARK   91  A    between atoms: _216  and  _217
REMARK   92  A    between atoms: _216  and  _219
REMARK   93  A    between atoms: _219  and  _220
REMARK   94  A    between atoms: _224  and  _225
REMARK   95  A    between atoms: _230  and  _232
REMARK   96  A    between atoms: _232  and  _233
REMARK   97  A    between atoms: _232  and  _235
REMARK   98  A    between atoms: _235  and  _236
REMARK   99  A    between atoms: _240  and  _241
REMARK  100  A    between atoms: _246  and  _248
REMARK  101  A    between atoms: _248  and  _249
REMARK  102  A    between atoms: _248  and  _251
REMARK  103  A    between atoms: _254  and  _256
REMARK  104  A    between atoms: _256  and  _257
REMARK  105  A    between atoms: _256  and  _259
REMARK  106  A    between atoms: _259  and  _260
REMARK  107  A    between atoms: _265  and  _267
REMARK  108  A    between atoms: _267  and  _268
REMARK  109  A    between atoms: _267  and  _270
REMARK  110  A    between atoms: _270  and  _271
REMARK  111  A    between atoms: _274  and  _276
REMARK  112  A    between atoms: _276  and  _277
REMARK  113  A    between atoms: _276  and  _279
REMARK  114  A    between atoms: _279  and  _280
REMARK  115  A    between atoms: _283  and  _285
REMARK  116  A    between atoms: _285  and  _286
REMARK  117  A    between atoms: _288  and  _290
REMARK  118  A    between atoms: _290  and  _291
REMARK  119  A    between atoms: _290  and  _293
REMARK  120  A    between atoms: _293  and  _294
REMARK  121  A    between atoms: _294  and  _295
REMARK  122  A    between atoms: _295  and  _296
REMARK  123  A    between atoms: _305  and  _307
REMARK  124  A    between atoms: _307  and  _308
REMARK  125  A    between atoms: _307  and  _310
REMARK  126  A    between atoms: _310  and  _311
REMARK  127  A    between atoms: _316  and  _318
REMARK  128  A    between atoms: _318  and  _319
REMARK  129  A    between atoms: _318  and  _321
REMARK  130  A    between atoms: _321  and  _322
REMARK  131  A    between atoms: _322  and  _323
REMARK  132  A    between atoms: _323  and  _324
REMARK  133  A    between atoms: _334  and  _335
REMARK  134  A    between atoms: _340  and  _342
REMARK  135  A    between atoms: _342  and  _343
REMARK  136  A    between atoms: _342  and  _345
REMARK  137  A    between atoms: _345  and  _346
REMARK  138  A    between atoms: _349  and  _351
REMARK  139  A    between atoms: _351  and  _352
REMARK  140  A    between atoms: _351  and  _354
REMARK  141  A    between atoms: _354  and  _355
REMARK  142  A    between atoms: _358  and  _360
REMARK  143  A    between atoms: _360  and  _361
REMARK  144  A    between atoms: _360  and  _363
REMARK  145  A    between atoms: _363  and  _364
REMARK  146  A    between atoms: _367  and  _369
REMARK  147  A    between atoms: _369  and  _370
REMARK  148  A    between atoms: _369  and  _372
REMARK  149  A    between atoms: _372  and  _373
REMARK  150  A    between atoms: _376  and  _378
REMARK  151  A    between atoms: _378  and  _379
REMARK  152  A    between atoms: _378  and  _381
REMARK  153  A    between atoms: _381  and  _382
REMARK  154  A    between atoms: _385  and  _387
REMARK  155  A    between atoms: _387  and  _388
REMARK  156  A    between atoms: _390  and  _392
REMARK  157  A    between atoms: _392  and  _393
REMARK  158  A    between atoms: _396  and  _398
REMARK  159  A    between atoms: _398  and  _399
REMARK  160  A    between atoms: _398  and  _401
REMARK  161  A    between atoms: _401  and  _402
REMARK  162  A    between atoms: _405  and  _407
REMARK  163  A    between atoms: _407  and  _408
REMARK  164  A    between atoms: _407  and  _410
REMARK  165  A    between atoms: _410  and  _411
REMARK  166  A    between atoms: _414  and  _416
REMARK  167  A    between atoms: _416  and  _417
REMARK  168  A    between atoms: _416  and  _419
REMARK  169  A    between atoms: _419  and  _420
REMARK  170  A    between atoms: _423  and  _425
REMARK  171  A    between atoms: _425  and  _426
REMARK  172  A    between atoms: _425  and  _428
REMARK  173  A    between atoms: _431  and  _433
REMARK  174  A    between atoms: _433  and  _434
REMARK  175  A    between atoms: _433  and  _436
REMARK  176  A    between atoms: _436  and  _437
REMARK  177  A    between atoms: _440  and  _442
REMARK  178  A    between atoms: _442  and  _443
REMARK  179  A    between atoms: _442  and  _445
REMARK  180  A    between atoms: _445  and  _446
REMARK  181  A    between atoms: _446  and  _447
REMARK  182  A    between atoms: _447  and  _448
REMARK  183  A    between atoms: _448  and  _449
REMARK  184  A    between atoms: _453  and  _455
REMARK  185  A    between atoms: _455  and  _456
REMARK  186  A    between atoms: _455  and  _458
REMARK  187  A    between atoms: _458  and  _459
REMARK  188  A    between atoms: _459  and  _460
REMARK  189  A    between atoms: _462  and  _464
REMARK  190  A    between atoms: _464  and  _465
REMARK  191  A    between atoms: _464  and  _467
REMARK  192  A    between atoms: _467  and  _468
REMARK  193  A    between atoms: _471  and  _473
REMARK  194  A    between atoms: _473  and  _474
REMARK  195  A    between atoms: _476  and  _478
REMARK  196  A    between atoms: _478  and  _479
REMARK  197  A    between atoms: _481  and  _483
REMARK  198  A    between atoms: _483  and  _484
REMARK  199  A    between atoms: _483  and  _486
REMARK  200  A    between atoms: _486  and  _487
REMARK  201  A    between atoms: _490  and  _492
REMARK  202  A    between atoms: _492  and  _493
REMARK  203  A    between atoms: _495  and  _497
REMARK  204  A    between atoms: _497  and  _498
REMARK  205  A    between atoms: _500  and  _502
REMARK  206  A    between atoms: _502  and  _503
REMARK  207  A    between atoms: _502  and  _505
REMARK  208  A    between atoms: _505  and  _506
REMARK  209  A    between atoms: _512  and  _514
REMARK  210  A    between atoms: _514  and  _515
REMARK  211  A    between atoms: _514  and  _517
REMARK  212  A    between atoms: _517  and  _518
REMARK  213  A    between atoms: _521  and  _523
REMARK  214  A    between atoms: _523  and  _524
REMARK  215  A    between atoms: _523  and  _526
REMARK  216  A    between atoms: _529  and  _531
REMARK  217  A    between atoms: _531  and  _532
REMARK  218  A    between atoms: _531  and  _534
REMARK  219  A    between atoms: _534  and  _535
REMARK  220  A    between atoms: _539  and  _540
REMARK  221  A    between atoms: _545  and  _547
REMARK  222  A    between atoms: _547  and  _548
REMARK  223  A    between atoms: _547  and  _550
REMARK  224  A    between atoms: _550  and  _551
REMARK  225  A    between atoms: _555  and  _556
REMARK  226  A    between atoms: _561  and  _563
REMARK  227  A    between atoms: _563  and  _564
REMARK  228  A    between atoms: _563  and  _566
REMARK  229  A    between atoms: _569  and  _571
REMARK  230  A    between atoms: _571  and  _572
REMARK  231  A    between atoms: _571  and  _574
REMARK  232  A    between atoms: _574  and  _575
REMARK  233  A    between atoms: _580  and  _582
REMARK  234  A    between atoms: _582  and  _583
REMARK  235  A    between atoms: _582  and  _585
REMARK  236  A    between atoms: _585  and  _586
REMARK  237  A    between atoms: _589  and  _591
REMARK  238  A    between atoms: _591  and  _592
REMARK  239  A    between atoms: _591  and  _594
REMARK  240  A    between atoms: _594  and  _595
REMARK  241  A    between atoms: _598  and  _600
REMARK  242  A    between atoms: _600  and  _601
REMARK  243  A    between atoms: _603  and  _605
REMARK  244  A    between atoms: _605  and  _606
REMARK  245  A    between atoms: _605  and  _608
REMARK  246  A    between atoms: _608  and  _609
REMARK  247  A    between atoms: _609  and  _610
REMARK  248  A    between atoms: _610  and  _611
REMARK  249  A    between atoms: _620  and  _622
REMARK  250  A    between atoms: _622  and  _623
REMARK  251  A    between atoms: _622  and  _625
REMARK  252  A    between atoms: _625  and  _626
REMARK                            x       y       z     vdW  Elec       q    Type
REMARK                         _______ _______ _______ _____ _____    ______ ____
ROOT
ATOM      1  O   HOH     1      17.943  17.910  16.905  0.00  0.00    +0.000 OA
ENDROOT
TORSDOF 0
REMARK  Name = ../refined-set-2016/1w5y/1w5y_pocket.pdb
REMARK  252 active torsions:
REMARK  status: ('A' for Active; 'I' for Inactive)
REMARK    1  A    between atoms: _1  and  _3
REMARK    2  A    between atoms: _3  and  _4
REMARK    3  A    between atoms: _3  and  _6
REMARK    4  A    between atoms: _6  and  _7
REMARK    5  A    between atoms: _7  and  _8
REMARK    6  A    between atoms: _8  and  _9
REMARK    7  A    between atoms: _19  and  _20
REMARK    8  A    between atoms: _25  and  _27
REMARK    9  A    between atoms: _27  and  _28
REMARK   10  A    between atoms: _27  and  _30
REMARK   11  A    between atoms: _30  and  _31
REMARK   12  A    between atoms: _34  and  _36
REMARK   13  A    between atoms: _36  and  _37
REMARK   14  A    between atoms: _36  and  _39
REMARK   15  A    between atoms: _39  and  _40
REMARK   16  A    between atoms: _43  and  _45
REMARK   17  A    between atoms: _45  and  _46
REMARK   18  A    between atoms: _45  and  _48
REMARK   19  A    between atoms: _48  and  _49
REMARK   20  A    between atoms: _52  and  _54
REMARK   21  A    between atoms: _54  and  _55
REMARK   22  A    between atoms: _54  and  _57
REMARK   23  A    between atoms: _57  and  _58
REMARK   24  A    between atoms: _61  and  _63
REMARK   25  A    between atoms: _63  and  _64
REMARK   26  A    between atoms: _63  and  _66
REMARK   27  A    between atoms: _66  and  _67
REMARK   28  A    between atoms: _70  and  _72
REMARK   29  A    between atoms: _72  and  _73
REMARK   30  A    between atoms: _75  and  _77
REMARK   31  A    between atoms: _77  and  _78
REMARK   32  A    between atoms: _81  and  _83
REMARK   33  A    between atoms: _83  and  _84
REMARK   34  A    between atoms: _83  and  _86
REMARK   35  A    between atoms: _86  and  _87
REMARK   36  A    between atoms: _90  and  _92
REMARK   37  A    between atoms: _92  and  _93
REMARK   38  A    between atoms: _92  and  _95
REMARK   39  A    between atoms: _95  and  _96
REMARK   40  A    between atoms: _99  and  _101
REMARK   41  A    between atoms: _101  and  _102
REMARK   42  A    between atoms: _101  and  _104
REMARK   43  A    between atoms: _104  and  _105
REMARK   44  A    between atoms: _108  and  _110
REMARK   45  A    between atoms: _110  and  _111
REMARK   46  A    between atoms: _110  and  _113
REMARK   47  A    between atoms: _116  and  _118
REMARK   48  A    between atoms: _118  and  _119
REMARK   49  A    between atoms: _118  and  _121
REMARK   50  A    between atoms: _121  and  _122
REMARK   51  A    between atoms: _125  and  _127
REMARK   52  A    between atoms: _127  and  _128
REMARK   53  A    between atoms: _127  and  _130
REMARK   54  A    between atoms: _130  and  _131
REMARK   55  A    between atoms: _131  and  _132
REMARK   56  A    between atoms: _132  and  _133
REMARK   57  A    between atoms: _133  and  _134
REMARK   58  A    between atoms: _138  and  _140
REMARK   59  A    between atoms: _140  and  _141
REMARK   60  A    between atoms: _140  and  _143
REMARK   61  A    between atoms: _143  and  _144
REMARK   62  A    between atoms: _144  and  _145
REMARK   63  A    between atoms: _147  and  _149
REMARK   64  A    between atoms: _149  and  _150
REMARK   65  A    between atoms: _149  and  _152
REMARK   66  A    between atoms: _152  and  _153
REMARK   67  A    between atoms: _156  and  _158
REMARK   68  A    between atoms: _158  and  _159
REMARK   69  A    between atoms: _161  and  _163
REMARK   70  A    between atoms: _163  and  _164
REMARK   71  A    between atoms: _166  and  _168
REMARK   72  A    between atoms: _168  and  _169
REMARK   73  A    between atoms: _168  and  _171
REMARK   74  A    between atoms: _171  and  _172
REMARK   75  A    between atoms: _175  and  _177
REMARK   76  A    between atoms: _177  and  _178
REMARK   77  A    between atoms: _180  and  _182
REMARK   78  A    between atoms: _182  and  _183
REMARK   79  A    between atoms: _185  and  _187
REMARK   80  A    between atoms: _187  and  _188
REMARK   81  A    between atoms: _187  and  _190
REMARK   82  A    between atoms: _190  and  _191
REMARK   83  A    between atoms: _197  and  _199
REMARK   84  A    between atoms: _199  and  _200
REMARK   85  A    between atoms: _199  and  _202
REMARK   86  A    between atoms: _202  and  _203
REMARK   87  A    between atoms: _206  and  _208
REMARK   88  A    between atoms: _208  and  _209
REMARK   89  A    between atoms: _208  and  _211
REMARK   90  A    between atoms: _214  and  _216
REMARK   91  A    between atoms: _216  and  _217
REMARK   92  A    between atoms: _216  and  _219
REMARK   93  A    between atoms: _219  and  _220
REMARK   94  A    between atoms: _224  and  _225
REMARK   95  A    between atoms: _230  and  _232
REMARK   96  A    between atoms: _232  and  _233
REMARK   97  A    between atoms: _232  and  _235
REMARK   98  A    between atoms: _235  and  _236
REMARK   99  A    between atoms: _240  and  _241
REMARK  100  A    between atoms: _246  and  _248
REMARK  101  A    between atoms: _248  and  _249
REMARK  102  A    between atoms: _248  and  _251
REMARK  103  A    between atoms: _254  and  _256
REMARK  104  A    between atoms: _256  and  _257
REMARK  105  A    between atoms: _256  and  _259
REMARK  106  A    between atoms: _259  and  _260
REMARK  107  A    between atoms: _265  and  _267
REMARK  108  A    between atoms: _267  and  _268
REMARK  109  A    between atoms: _267  and  _270
REMARK  110  A    between atoms: _270  and  _271
REMARK  111  A    between atoms: _274  and  _276
REMARK  112  A    between atoms: _276  and  _277
REMARK  113  A    between atoms: _276  and  _279
REMARK  114  A    between atoms: _279  and  _280
REMARK  115  A    between atoms: _283  and  _285
REMARK  116  A    between atoms: _285  and  _286
REMARK  117  A    between atoms: _288  and  _290
REMARK  118  A    between atoms: _290  and  _291
REMARK  119  A    between atoms: _290  and  _293
REMARK  120  A    between atoms: _293  and  _294
REMARK  121  A    between atoms: _294  and  _295
REMARK  122  A    between atoms: _295  and  _296
REMARK  123  A    between atoms: _305  and  _307
REMARK  124  A    between atoms: _307  and  _308
REMARK  125  A    between atoms: _307  and  _310
REMARK  126  A    between atoms: _310  and  _311
REMARK  127  A    between atoms: _316  and  _318
REMARK  128  A    between atoms: _318  and  _319
REMARK  129  A    between atoms: _318  and  _321
REMARK  130  A    between atoms: _321  and  _322
REMARK  131  A    between atoms: _322  and  _323
REMARK  132  A    between atoms: _323  and  _324
REMARK  133  A    between atoms: _334  and  _335
REMARK  134  A    between atoms: _340  and  _342
REMARK  135  A    between atoms: _342  and  _343
REMARK  136  A    between atoms: _342  and  _345
REMARK  137  A    between atoms: _345  and  _346
REMARK  138  A    between atoms: _349  and  _351
REMARK  139  A    between atoms: _351  and  _352
REMARK  140  A    between atoms: _351  and  _354
REMARK  141  A    between atoms: _354  and  _355
REMARK  142  A    between atoms: _358  and  _360
REMARK  143  A    between atoms: _360  and  _361
REMARK  144  A    between atoms: _360  and  _363
REMARK  145  A    between atoms: _363  and  _364
REMARK  146  A    between atoms: _367  and  _369
REMARK  147  A    between atoms: _369  and  _370
REMARK  148  A    between atoms: _369  and  _372
REMARK  149  A    between atoms: _372  and  _373
REMARK  150  A    between atoms: _376  and  _378
REMARK  151  A    between atoms: _378  and  _379
REMARK  152  A    between atoms: _378  and  _381
REMARK  153  A    between atoms: _381  and  _382
REMARK  154  A    between atoms: _385  and  _387
REMARK  155  A    between atoms: _387  and  _388
REMARK  156  A    between atoms: _390  and  _392
REMARK  157  A    between atoms: _392  and  _393
REMARK  158  A    between atoms: _396  and  _398
REMARK  159  A    between atoms: _398  and  _399
REMARK  160  A    between atoms: _398  and  _401
REMARK  161  A    between atoms: _401  and  _402
REMARK  162  A    between atoms: _405  and  _407
REMARK  163  A    between atoms: _407  and  _408
REMARK  164  A    between atoms: _407  and  _410
REMARK  165  A    between atoms: _410  and  _411
REMARK  166  A    between atoms: _414  and  _416
REMARK  167  A    between atoms: _416  and  _417
REMARK  168  A    between atoms: _416  and  _419
REMARK  169  A    between atoms: _419  and  _420
REMARK  170  A    between atoms: _423  and  _425
REMARK  171  A    between atoms: _425  and  _426
REMARK  172  A    between atoms: _425  and  _428
REMARK  173  A    between atoms: _431  and  _433
REMARK  174  A    between atoms: _433  and  _434
REMARK  175  A    between atoms: _433  and  _436
REMARK  176  A    between atoms: _436  and  _437
REMARK  177  A    between atoms: _440  and  _442
REMARK  178  A    between atoms: _442  and  _443
REMARK  179  A    between atoms: _442  and  _445
REMARK  180  A    between atoms: _445  and  _446
REMARK  181  A    between atoms: _446  and  _447
REMARK  182  A    between atoms: _447  and  _448
REMARK  183  A    between atoms: _448  and  _449
REMARK  184  A    between atoms: _453  and  _455
REMARK  185  A    between atoms: _455  and  _456
REMARK  186  A    between atoms: _455  and  _458
REMARK  187  A    between atoms: _458  and  _459
REMARK  188  A    between atoms: _459  and  _460
REMARK  189  A    between atoms: _462  and  _464
REMARK  190  A    between atoms: _464  and  _465
REMARK  191  A    between atoms: _464  and  _467
REMARK  192  A    between atoms: _467  and  _468
REMARK  193  A    between atoms: _471  and  _473
REMARK  194  A    between atoms: _473  and  _474
REMARK  195  A    between atoms: _476  and  _478
REMARK  196  A    between atoms: _478  and  _479
REMARK  197  A    between atoms: _481  and  _483
REMARK  198  A    between atoms: _483  and  _484
REMARK  199  A    between atoms: _483  and  _486
REMARK  200  A    between atoms: _486  and  _487
REMARK  201  A    between atoms: _490  and  _492
REMARK  202  A    between atoms: _492  and  _493
REMARK  203  A    between atoms: _495  and  _497
REMARK  204  A    between atoms: _497  and  _498
REMARK  205  A    between atoms: _500  and  _502
REMARK  206  A    between atoms: _502  and  _503
REMARK  207  A    between atoms: _502  and  _505
REMARK  208  A    between atoms: _505  and  _506
REMARK  209  A    between atoms: _512  and  _514
REMARK  210  A    between atoms: _514  and  _515
REMARK  211  A    between atoms: _514  and  _517
REMARK  212  A    between atoms: _517  and  _518
REMARK  213  A    between atoms: _521  and  _523
REMARK  214  A    between atoms: _523  and  _524
REMARK  215  A    between atoms: _523  and  _526
REMARK  216  A    between atoms: _529  and  _531
REMARK  217  A    between atoms: _531  and  _532
REMARK  218  A    between atoms: _531  and  _534
REMARK  219  A    between atoms: _534  and  _535
REMARK  220  A    between atoms: _539  and  _540
REMARK  221  A    between atoms: _545  and  _547
REMARK  222  A    between atoms: _547  and  _548
REMARK  223  A    between atoms: _547  and  _550
REMARK  224  A    between atoms: _550  and  _551
REMARK  225  A    between atoms: _555  and  _556
REMARK  226  A    between atoms: _561  and  _563
REMARK  227  A    between atoms: _563  and  _564
REMARK  228  A    between atoms: _563  and  _566
REMARK  229  A    between atoms: _569  and  _571
REMARK  230  A    between atoms: _571  and  _572
REMARK  231  A    between atoms: _571  and  _574
REMARK  232  A    between atoms: _574  and  _575
REMARK  233  A    between atoms: _580  and  _582
REMARK  234  A    between atoms: _582  and  _583
REMARK  235  A    between atoms: _582  and  _585
REMARK  236  A    between atoms: _585  and  _586
REMARK  237  A    between atoms: _589  and  _591
REMARK  238  A    between atoms: _591  and  _592
REMARK  239  A    between atoms: _591  and  _594
REMARK  240  A    between atoms: _594  and  _595
REMARK  241  A    between atoms: _598  and  _600
REMARK  242  A    between atoms: _600  and  _601
REMARK  243  A    between atoms: _603  and  _605
REMARK  244  A    between atoms: _605  and  _606
REMARK  245  A    between atoms: _605  and  _608
REMARK  246  A    between atoms: _608  and  _609
REMARK  247  A    between atoms: _609  and  _610
REMARK  248  A    between atoms: _610  and  _611
REMARK  249  A    between atoms: _620  and  _622
REMARK  250  A    between atoms: _622  and  _623
REMARK  251  A    between atoms: _622  and  _625
REMARK  252  A    between atoms: _625  and  _626
REMARK                            x       y       z     vdW  Elec       q    Type
REMARK                         _______ _______ _______ _____ _____    ______ ____
ROOT
ATOM      1  O   HOH     1      11.148  30.850   1.924  0.00  0.00    +0.000 OA
ENDROOT
TORSDOF 0
REMARK  Name = ../refined-set-2016/1w5y/1w5y_pocket.pdb
REMARK  252 active torsions:
REMARK  status: ('A' for Active; 'I' for Inactive)
REMARK    1  A    between atoms: _1  and  _3
REMARK    2  A    between atoms: _3  and  _4
REMARK    3  A    between atoms: _3  and  _6
REMARK    4  A    between atoms: _6  and  _7
REMARK    5  A    between atoms: _7  and  _8
REMARK    6  A    between atoms: _8  and  _9
REMARK    7  A    between atoms: _19  and  _20
REMARK    8  A    between atoms: _25  and  _27
REMARK    9  A    between atoms: _27  and  _28
REMARK   10  A    between atoms: _27  and  _30
REMARK   11  A    between atoms: _30  and  _31
REMARK   12  A    between atoms: _34  and  _36
REMARK   13  A    between atoms: _36  and  _37
REMARK   14  A    between atoms: _36  and  _39
REMARK   15  A    between atoms: _39  and  _40
REMARK   16  A    between atoms: _43  and  _45
REMARK   17  A    between atoms: _45  and  _46
REMARK   18  A    between atoms: _45  and  _48
REMARK   19  A    between atoms: _48  and  _49
REMARK   20  A    between atoms: _52  and  _54
REMARK   21  A    between atoms: _54  and  _55
REMARK   22  A    between atoms: _54  and  _57
REMARK   23  A    between atoms: _57  and  _58
REMARK   24  A    between atoms: _61  and  _63
REMARK   25  A    between atoms: _63  and  _64
REMARK   26  A    between atoms: _63  and  _66
REMARK   27  A    between atoms: _66  and  _67
REMARK   28  A    between atoms: _70  and  _72
REMARK   29  A    between atoms: _72  and  _73
REMARK   30  A    between atoms: _75  and  _77
REMARK   31  A    between atoms: _77  and  _78
REMARK   32  A    between atoms: _81  and  _83
REMARK   33  A    between atoms: _83  and  _84
REMARK   34  A    between atoms: _83  and  _86
REMARK   35  A    between atoms: _86  and  _87
REMARK   36  A    between atoms: _90  and  _92
REMARK   37  A    between atoms: _92  and  _93
REMARK   38  A    between atoms: _92  and  _95
REMARK   39  A    between atoms: _95  and  _96
REMARK   40  A    between atoms: _99  and  _101
REMARK   41  A    between atoms: _101  and  _102
REMARK   42  A    between atoms: _101  and  _104
REMARK   43  A    between atoms: _104  and  _105
REMARK   44  A    between atoms: _108  and  _110
REMARK   45  A    between atoms: _110  and  _111
REMARK   46  A    between atoms: _110  and  _113
REMARK   47  A    between atoms: _116  and  _118
REMARK   48  A    between atoms: _118  and  _119
REMARK   49  A    between atoms: _118  and  _121
REMARK   50  A    between atoms: _121  and  _122
REMARK   51  A    between atoms: _125  and  _127
REMARK   52  A    between atoms: _127  and  _128
REMARK   53  A    between atoms: _127  and  _130
REMARK   54  A    between atoms: _130  and  _131
REMARK   55  A    between atoms: _131  and  _132
REMARK   56  A    between atoms: _132  and  _133
REMARK   57  A    between atoms: _133  and  _134
REMARK   58  A    between atoms: _138  and  _140
REMARK   59  A    between atoms: _140  and  _141
REMARK   60  A    between atoms: _140  and  _143
REMARK   61  A    between atoms: _143  and  _144
REMARK   62  A    between atoms: _144  and  _145
REMARK   63  A    between atoms: _147  and  _149
REMARK   64  A    between atoms: _149  and  _150
REMARK   65  A    between atoms: _149  and  _152
REMARK   66  A    between atoms: _152  and  _153
REMARK   67  A    between atoms: _156  and  _158
REMARK   68  A    between atoms: _158  and  _159
REMARK   69  A    between atoms: _161  and  _163
REMARK   70  A    between atoms: _163  and  _164
REMARK   71  A    between atoms: _166  and  _168
REMARK   72  A    between atoms: _168  and  _169
REMARK   73  A    between atoms: _168  and  _171
REMARK   74  A    between atoms: _171  and  _172
REMARK   75  A    between atoms: _175  and  _177
REMARK   76  A    between atoms: _177  and  _178
REMARK   77  A    between atoms: _180  and  _182
REMARK   78  A    between atoms: _182  and  _183
REMARK   79  A    between atoms: _185  and  _187
REMARK   80  A    between atoms: _187  and  _188
REMARK   81  A    between atoms: _187  and  _190
REMARK   82  A    between atoms: _190  and  _191
REMARK   83  A    between atoms: _197  and  _199
REMARK   84  A    between atoms: _199  and  _200
REMARK   85  A    between atoms: _199  and  _202
REMARK   86  A    between atoms: _202  and  _203
REMARK   87  A    between atoms: _206  and  _208
REMARK   88  A    between atoms: _208  and  _209
REMARK   89  A    between atoms: _208  and  _211
REMARK   90  A    between atoms: _214  and  _216
REMARK   91  A    between atoms: _216  and  _217
REMARK   92  A    between atoms: _216  and  _219
REMARK   93  A    between atoms: _219  and  _220
REMARK   94  A    between atoms: _224  and  _225
REMARK   95  A    between atoms: _230  and  _232
REMARK   96  A    between atoms: _232  and  _233
REMARK   97  A    between atoms: _232  and  _235
REMARK   98  A    between atoms: _235  and  _236
REMARK   99  A    between atoms: _240  and  _241
REMARK  100  A    between atoms: _246  and  _248
REMARK  101  A    between atoms: _248  and  _249
REMARK  102  A    between atoms: _248  and  _251
REMARK  103  A    between atoms: _254  and  _256
REMARK  104  A    between atoms: _256  and  _257
REMARK  105  A    between atoms: _256  and  _259
REMARK  106  A    between atoms: _259  and  _260
REMARK  107  A    between atoms: _265  and  _267
REMARK  108  A    between atoms: _267  and  _268
REMARK  109  A    between atoms: _267  and  _270
REMARK  110  A    between atoms: _270  and  _271
REMARK  111  A    between atoms: _274  and  _276
REMARK  112  A    between atoms: _276  and  _277
REMARK  113  A    between atoms: _276  and  _279
REMARK  114  A    between atoms: _279  and  _280
REMARK  115  A    between atoms: _283  and  _285
REMARK  116  A    between atoms: _285  and  _286
REMARK  117  A    between atoms: _288  and  _290
REMARK  118  A    between atoms: _290  and  _291
REMARK  119  A    between atoms: _290  and  _293
REMARK  120  A    between atoms: _293  and  _294
REMARK  121  A    between atoms: _294  and  _295
REMARK  122  A    between atoms: _295  and  _296
REMARK  123  A    between atoms: _305  and  _307
REMARK  124  A    between atoms: _307  and  _308
REMARK  125  A    between atoms: _307  and  _310
REMARK  126  A    between atoms: _310  and  _311
REMARK  127  A    between atoms: _316  and  _318
REMARK  128  A    between atoms: _318  and  _319
REMARK  129  A    between atoms: _318  and  _321
REMARK  130  A    between atoms: _321  and  _322
REMARK  131  A    between atoms: _322  and  _323
REMARK  132  A    between atoms: _323  and  _324
REMARK  133  A    between atoms: _334  and  _335
REMARK  134  A    between atoms: _340  and  _342
REMARK  135  A    between atoms: _342  and  _343
REMARK  136  A    between atoms: _342  and  _345
REMARK  137  A    between atoms: _345  and  _346
REMARK  138  A    between atoms: _349  and  _351
REMARK  139  A    between atoms: _351  and  _352
REMARK  140  A    between atoms: _351  and  _354
REMARK  141  A    between atoms: _354  and  _355
REMARK  142  A    between atoms: _358  and  _360
REMARK  143  A    between atoms: _360  and  _361
REMARK  144  A    between atoms: _360  and  _363
REMARK  145  A    between atoms: _363  and  _364
REMARK  146  A    between atoms: _367  and  _369
REMARK  147  A    between atoms: _369  and  _370
REMARK  148  A    between atoms: _369  and  _372
REMARK  149  A    between atoms: _372  and  _373
REMARK  150  A    between atoms: _376  and  _378
REMARK  151  A    between atoms: _378  and  _379
REMARK  152  A    between atoms: _378  and  _381
REMARK  153  A    between atoms: _381  and  _382
REMARK  154  A    between atoms: _385  and  _387
REMARK  155  A    between atoms: _387  and  _388
REMARK  156  A    between atoms: _390  and  _392
REMARK  157  A    between atoms: _392  and  _393
REMARK  158  A    between atoms: _396  and  _398
REMARK  159  A    between atoms: _398  and  _399
REMARK  160  A    between atoms: _398  and  _401
REMARK  161  A    between atoms: _401  and  _402
REMARK  162  A    between atoms: _405  and  _407
REMARK  163  A    between atoms: _407  and  _408
REMARK  164  A    between atoms: _407  and  _410
REMARK  165  A    between atoms: _410  and  _411
REMARK  166  A    between atoms: _414  and  _416
REMARK  167  A    between atoms: _416  and  _417
REMARK  168  A    between atoms: _416  and  _419
REMARK  169  A    between atoms: _419  and  _420
REMARK  170  A    between atoms: _423  and  _425
REMARK  171  A    between atoms: _425  and  _426
REMARK  172  A    between atoms: _425  and  _428
REMARK  173  A    between atoms: _431  and  _433
REMARK  174  A    between atoms: _433  and  _434
REMARK  175  A    between atoms: _433  and  _436
REMARK  176  A    between atoms: _436  and  _437
REMARK  177  A    between atoms: _440  and  _442
REMARK  178  A    between atoms: _442  and  _443
REMARK  179  A    between atoms: _442  and  _445
REMARK  180  A    between atoms: _445  and  _446
REMARK  181  A    between atoms: _446  and  _447
REMARK  182  A    between atoms: _447  and  _448
REMARK  183  A    between atoms: _448  and  _449
REMARK  184  A    between atoms: _453  and  _455
REMARK  185  A    between atoms: _455  and  _456
REMARK  186  A    between atoms: _455  and  _458
REMARK  187  A    between atoms: _458  and  _459
REMARK  188  A    between atoms: _459  and  _460
REMARK  189  A    between atoms: _462  and  _464
REMARK  190  A    between atoms: _464  and  _465
REMARK  191  A    between atoms: _464  and  _467
REMARK  192  A    between atoms: _467  and  _468
REMARK  193  A    between atoms: _471  and  _473
REMARK  194  A    between atoms: _473  and  _474
REMARK  195  A    between atoms: _476  and  _478
REMARK  196  A    between atoms: _478  and  _479
REMARK  197  A    between atoms: _481  and  _483
REMARK  198  A    between atoms: _483  and  _484
REMARK  199  A    between atoms: _483  and  _486
REMARK  200  A    between atoms: _486  and  _487
REMARK  201  A    between atoms: _490  and  _492
REMARK  202  A    between atoms: _492  and  _493
REMARK  203  A    between atoms: _495  and  _497
REMARK  204  A    between atoms: _497  and  _498
REMARK  205  A    between atoms: _500  and  _502
REMARK  206  A    between atoms: _502  and  _503
REMARK  207  A    between atoms: _502  and  _505
REMARK  208  A    between atoms: _505  and  _506
REMARK  209  A    between atoms: _512  and  _514
REMARK  210  A    between atoms: _514  and  _515
REMARK  211  A    between atoms: _514  and  _517
REMARK  212  A    between atoms: _517  and  _518
REMARK  213  A    between atoms: _521  and  _523
REMARK  214  A    between atoms: _523  and  _524
REMARK  215  A    between atoms: _523  and  _526
REMARK  216  A    between atoms: _529  and  _531
REMARK  217  A    between atoms: _531  and  _532
REMARK  218  A    between atoms: _531  and  _534
REMARK  219  A    between atoms: _534  and  _535
REMARK  220  A    between atoms: _539  and  _540
REMARK  221  A    between atoms: _545  and  _547
REMARK  222  A    between atoms: _547  and  _548
REMARK  223  A    between atoms: _547  and  _550
REMARK  224  A    between atoms: _550  and  _551
REMARK  225  A    between atoms: _555  and  _556
REMARK  226  A    between atoms: _561  and  _563
REMARK  227  A    between atoms: _563  and  _564
REMARK  228  A    between atoms: _563  and  _566
REMARK  229  A    between atoms: _569  and  _571
REMARK  230  A    between atoms: _571  and  _572
REMARK  231  A    between atoms: _571  and  _574
REMARK  232  A    between atoms: _574  and  _575
REMARK  233  A    between atoms: _580  and  _582
REMARK  234  A    between atoms: _582  and  _583
REMARK  235  A    between atoms: _582  and  _585
REMARK  236  A    between atoms: _585  and  _586
REMARK  237  A    between atoms: _589  and  _591
REMARK  238  A    between atoms: _591  and  _592
REMARK  239  A    between atoms: _591  and  _594
REMARK  240  A    between atoms: _594  and  _595
REMARK  241  A    between atoms: _598  and  _600
REMARK  242  A    between atoms: _600  and  _601
REMARK  243  A    between atoms: _603  and  _605
REMARK  244  A    between atoms: _605  and  _606
REMARK  245  A    between atoms: _605  and  _608
REMARK  246  A    between atoms: _608  and  _609
REMARK  247  A    between atoms: _609  and  _610
REMARK  248  A    between atoms: _610  and  _611
REMARK  249  A    between atoms: _620  and  _622
REMARK  250  A    between atoms: _622  and  _623
REMARK  251  A    between atoms: _622  and  _625
REMARK  252  A    between atoms: _625  and  _626
REMARK                            x       y       z     vdW  Elec       q    Type
REMARK                         _______ _______ _______ _____ _____    ______ ____
ROOT
ATOM      1  O   HOH     1      11.596  21.207   6.661  0.00  0.00    +0.000 OA
ENDROOT
TORSDOF 0
REMARK  Name = ../refined-set-2016/1w5y/1w5y_pocket.pdb
REMARK  252 active torsions:
REMARK  status: ('A' for Active; 'I' for Inactive)
REMARK    1  A    between atoms: _1  and  _3
REMARK    2  A    between atoms: _3  and  _4
REMARK    3  A    between atoms: _3  and  _6
REMARK    4  A    between atoms: _6  and  _7
REMARK    5  A    between atoms: _7  and  _8
REMARK    6  A    between atoms: _8  and  _9
REMARK    7  A    between atoms: _19  and  _20
REMARK    8  A    between atoms: _25  and  _27
REMARK    9  A    between atoms: _27  and  _28
REMARK   10  A    between atoms: _27  and  _30
REMARK   11  A    between atoms: _30  and  _31
REMARK   12  A    between atoms: _34  and  _36
REMARK   13  A    between atoms: _36  and  _37
REMARK   14  A    between atoms: _36  and  _39
REMARK   15  A    between atoms: _39  and  _40
REMARK   16  A    between atoms: _43  and  _45
REMARK   17  A    between atoms: _45  and  _46
REMARK   18  A    between atoms: _45  and  _48
REMARK   19  A    between atoms: _48  and  _49
REMARK   20  A    between atoms: _52  and  _54
REMARK   21  A    between atoms: _54  and  _55
REMARK   22  A    between atoms: _54  and  _57
REMARK   23  A    between atoms: _57  and  _58
REMARK   24  A    between atoms: _61  and  _63
REMARK   25  A    between atoms: _63  and  _64
REMARK   26  A    between atoms: _63  and  _66
REMARK   27  A    between atoms: _66  and  _67
REMARK   28  A    between atoms: _70  and  _72
REMARK   29  A    between atoms: _72  and  _73
REMARK   30  A    between atoms: _75  and  _77
REMARK   31  A    between atoms: _77  and  _78
REMARK   32  A    between atoms: _81  and  _83
REMARK   33  A    between atoms: _83  and  _84
REMARK   34  A    between atoms: _83  and  _86
REMARK   35  A    between atoms: _86  and  _87
REMARK   36  A    between atoms: _90  and  _92
REMARK   37  A    between atoms: _92  and  _93
REMARK   38  A    between atoms: _92  and  _95
REMARK   39  A    between atoms: _95  and  _96
REMARK   40  A    between atoms: _99  and  _101
REMARK   41  A    between atoms: _101  and  _102
REMARK   42  A    between atoms: _101  and  _104
REMARK   43  A    between atoms: _104  and  _105
REMARK   44  A    between atoms: _108  and  _110
REMARK   45  A    between atoms: _110  and  _111
REMARK   46  A    between atoms: _110  and  _113
REMARK   47  A    between atoms: _116  and  _118
REMARK   48  A    between atoms: _118  and  _119
REMARK   49  A    between atoms: _118  and  _121
REMARK   50  A    between atoms: _121  and  _122
REMARK   51  A    between atoms: _125  and  _127
REMARK   52  A    between atoms: _127  and  _128
REMARK   53  A    between atoms: _127  and  _130
REMARK   54  A    between atoms: _130  and  _131
REMARK   55  A    between atoms: _131  and  _132
REMARK   56  A    between atoms: _132  and  _133
REMARK   57  A    between atoms: _133  and  _134
REMARK   58  A    between atoms: _138  and  _140
REMARK   59  A    between atoms: _140  and  _141
REMARK   60  A    between atoms: _140  and  _143
REMARK   61  A    between atoms: _143  and  _144
REMARK   62  A    between atoms: _144  and  _145
REMARK   63  A    between atoms: _147  and  _149
REMARK   64  A    between atoms: _149  and  _150
REMARK   65  A    between atoms: _149  and  _152
REMARK   66  A    between atoms: _152  and  _153
REMARK   67  A    between atoms: _156  and  _158
REMARK   68  A    between atoms: _158  and  _159
REMARK   69  A    between atoms: _161  and  _163
REMARK   70  A    between atoms: _163  and  _164
REMARK   71  A    between atoms: _166  and  _168
REMARK   72  A    between atoms: _168  and  _169
REMARK   73  A    between atoms: _168  and  _171
REMARK   74  A    between atoms: _171  and  _172
REMARK   75  A    between atoms: _175  and  _177
REMARK   76  A    between atoms: _177  and  _178
REMARK   77  A    between atoms: _180  and  _182
REMARK   78  A    between atoms: _182  and  _183
REMARK   79  A    between atoms: _185  and  _187
REMARK   80  A    between atoms: _187  and  _188
REMARK   81  A    between atoms: _187  and  _190
REMARK   82  A    between atoms: _190  and  _191
REMARK   83  A    between atoms: _197  and  _199
REMARK   84  A    between atoms: _199  and  _200
REMARK   85  A    between atoms: _199  and  _202
REMARK   86  A    between atoms: _202  and  _203
REMARK   87  A    between atoms: _206  and  _208
REMARK   88  A    between atoms: _208  and  _209
REMARK   89  A    between atoms: _208  and  _211
REMARK   90  A    between atoms: _214  and  _216
REMARK   91  A    between atoms: _216  and  _217
REMARK   92  A    between atoms: _216  and  _219
REMARK   93  A    between atoms: _219  and  _220
REMARK   94  A    between atoms: _224  and  _225
REMARK   95  A    between atoms: _230  and  _232
REMARK   96  A    between atoms: _232  and  _233
REMARK   97  A    between atoms: _232  and  _235
REMARK   98  A    between atoms: _235  and  _236
REMARK   99  A    between atoms: _240  and  _241
REMARK  100  A    between atoms: _246  and  _248
REMARK  101  A    between atoms: _248  and  _249
REMARK  102  A    between atoms: _248  and  _251
REMARK  103  A    between atoms: _254  and  _256
REMARK  104  A    between atoms: _256  and  _257
REMARK  105  A    between atoms: _256  and  _259
REMARK  106  A    between atoms: _259  and  _260
REMARK  107  A    between atoms: _265  and  _267
REMARK  108  A    between atoms: _267  and  _268
REMARK  109  A    between atoms: _267  and  _270
REMARK  110  A    between atoms: _270  and  _271
REMARK  111  A    between atoms: _274  and  _276
REMARK  112  A    between atoms: _276  and  _277
REMARK  113  A    between atoms: _276  and  _279
REMARK  114  A    between atoms: _279  and  _280
REMARK  115  A    between atoms: _283  and  _285
REMARK  116  A    between atoms: _285  and  _286
REMARK  117  A    between atoms: _288  and  _290
REMARK  118  A    between atoms: _290  and  _291
REMARK  119  A    between atoms: _290  and  _293
REMARK  120  A    between atoms: _293  and  _294
REMARK  121  A    between atoms: _294  and  _295
REMARK  122  A    between atoms: _295  and  _296
REMARK  123  A    between atoms: _305  and  _307
REMARK  124  A    between atoms: _307  and  _308
REMARK  125  A    between atoms: _307  and  _310
REMARK  126  A    between atoms: _310  and  _311
REMARK  127  A    between atoms: _316  and  _318
REMARK  128  A    between atoms: _318  and  _319
REMARK  129  A    between atoms: _318  and  _321
REMARK  130  A    between atoms: _321  and  _322
REMARK  131  A    between atoms: _322  and  _323
REMARK  132  A    between atoms: _323  and  _324
REMARK  133  A    between atoms: _334  and  _335
REMARK  134  A    between atoms: _340  and  _342
REMARK  135  A    between atoms: _342  and  _343
REMARK  136  A    between atoms: _342  and  _345
REMARK  137  A    between atoms: _345  and  _346
REMARK  138  A    between atoms: _349  and  _351
REMARK  139  A    between atoms: _351  and  _352
REMARK  140  A    between atoms: _351  and  _354
REMARK  141  A    between atoms: _354  and  _355
REMARK  142  A    between atoms: _358  and  _360
REMARK  143  A    between atoms: _360  and  _361
REMARK  144  A    between atoms: _360  and  _363
REMARK  145  A    between atoms: _363  and  _364
REMARK  146  A    between atoms: _367  and  _369
REMARK  147  A    between atoms: _369  and  _370
REMARK  148  A    between atoms: _369  and  _372
REMARK  149  A    between atoms: _372  and  _373
REMARK  150  A    between atoms: _376  and  _378
REMARK  151  A    between atoms: _378  and  _379
REMARK  152  A    between atoms: _378  and  _381
REMARK  153  A    between atoms: _381  and  _382
REMARK  154  A    between atoms: _385  and  _387
REMARK  155  A    between atoms: _387  and  _388
REMARK  156  A    between atoms: _390  and  _392
REMARK  157  A    between atoms: _392  and  _393
REMARK  158  A    between atoms: _396  and  _398
REMARK  159  A    between atoms: _398  and  _399
REMARK  160  A    between atoms: _398  and  _401
REMARK  161  A    between atoms: _401  and  _402
REMARK  162  A    between atoms: _405  and  _407
REMARK  163  A    between atoms: _407  and  _408
REMARK  164  A    between atoms: _407  and  _410
REMARK  165  A    between atoms: _410  and  _411
REMARK  166  A    between atoms: _414  and  _416
REMARK  167  A    between atoms: _416  and  _417
REMARK  168  A    between atoms: _416  and  _419
REMARK  169  A    between atoms: _419  and  _420
REMARK  170  A    between atoms: _423  and  _425
REMARK  171  A    between atoms: _425  and  _426
REMARK  172  A    between atoms: _425  and  _428
REMARK  173  A    between atoms: _431  and  _433
REMARK  174  A    between atoms: _433  and  _434
REMARK  175  A    between atoms: _433  and  _436
REMARK  176  A    between atoms: _436  and  _437
REMARK  177  A    between atoms: _440  and  _442
REMARK  178  A    between atoms: _442  and  _443
REMARK  179  A    between atoms: _442  and  _445
REMARK  180  A    between atoms: _445  and  _446
REMARK  181  A    between atoms: _446  and  _447
REMARK  182  A    between atoms: _447  and  _448
REMARK  183  A    between atoms: _448  and  _449
REMARK  184  A    between atoms: _453  and  _455
REMARK  185  A    between atoms: _455  and  _456
REMARK  186  A    between atoms: _455  and  _458
REMARK  187  A    between atoms: _458  and  _459
REMARK  188  A    between atoms: _459  and  _460
REMARK  189  A    between atoms: _462  and  _464
REMARK  190  A    between atoms: _464  and  _465
REMARK  191  A    between atoms: _464  and  _467
REMARK  192  A    between atoms: _467  and  _468
REMARK  193  A    between atoms: _471  and  _473
REMARK  194  A    between atoms: _473  and  _474
REMARK  195  A    between atoms: _476  and  _478
REMARK  196  A    between atoms: _478  and  _479
REMARK  197  A    between atoms: _481  and  _483
REMARK  198  A    between atoms: _483  and  _484
REMARK  199  A    between atoms: _483  and  _486
REMARK  200  A    between atoms: _486  and  _487
REMARK  201  A    between atoms: _490  and  _492
REMARK  202  A    between atoms: _492  and  _493
REMARK  203  A    between atoms: _495  and  _497
REMARK  204  A    between atoms: _497  and  _498
REMARK  205  A    between atoms: _500  and  _502
REMARK  206  A    between atoms: _502  and  _503
REMARK  207  A    between atoms: _502  and  _505
REMARK  208  A    between atoms: _505  and  _506
REMARK  209  A    between atoms: _512  and  _514
REMARK  210  A    between atoms: _514  and  _515
REMARK  211  A    between atoms: _514  and  _517
REMARK  212  A    between atoms: _517  and  _518
REMARK  213  A    between atoms: _521  and  _523
REMARK  214  A    between atoms: _523  and  _524
REMARK  215  A    between atoms: _523  and  _526
REMARK  216  A    between atoms: _529  and  _531
REMARK  217  A    between atoms: _531  and  _532
REMARK  218  A    between atoms: _531  and  _534
REMARK  219  A    between atoms: _534  and  _535
REMARK  220  A    between atoms: _539  and  _540
REMARK  221  A    between atoms: _545  and  _547
REMARK  222  A    between atoms: _547  and  _548
REMARK  223  A    between atoms: _547  and  _550
REMARK  224  A    between atoms: _550  and  _551
REMARK  225  A    between atoms: _555  and  _556
REMARK  226  A    between atoms: _561  and  _563
REMARK  227  A    between atoms: _563  and  _564
REMARK  228  A    between atoms: _563  and  _566
REMARK  229  A    between atoms: _569  and  _571
REMARK  230  A    between atoms: _571  and  _572
REMARK  231  A    between atoms: _571  and  _574
REMARK  232  A    between atoms: _574  and  _575
REMARK  233  A    between atoms: _580  and  _582
REMARK  234  A    between atoms: _582  and  _583
REMARK  235  A    between atoms: _582  and  _585
REMARK  236  A    between atoms: _585  and  _586
REMARK  237  A    between atoms: _589  and  _591
REMARK  238  A    between atoms: _591  and  _592
REMARK  239  A    between atoms: _591  and  _594
REMARK  240  A    between atoms: _594  and  _595
REMARK  241  A    between atoms: _598  and  _600
REMARK  242  A    between atoms: _600  and  _601
REMARK  243  A    between atoms: _603  and  _605
REMARK  244  A    between atoms: _605  and  _606
REMARK  245  A    between atoms: _605  and  _608
REMARK  246  A    between atoms: _608  and  _609
REMARK  247  A    between atoms: _609  and  _610
REMARK  248  A    between atoms: _610  and  _611
REMARK  249  A    between atoms: _620  and  _622
REMARK  250  A    between atoms: _622  and  _623
REMARK  251  A    between atoms: _622  and  _625
REMARK  252  A    between atoms: _625  and  _626
REMARK                            x       y       z     vdW  Elec       q    Type
REMARK                         _______ _______ _______ _____ _____    ______ ____
ROOT
ATOM      1  O   HOH     1       6.415  26.738  -5.390  0.00  0.00    +0.000 OA
ENDROOT
TORSDOF 0
REMARK  Name = ../refined-set-2016/1w5y/1w5y_pocket.pdb
REMARK  252 active torsions:
REMARK  status: ('A' for Active; 'I' for Inactive)
REMARK    1  A    between atoms: _1  and  _3
REMARK    2  A    between atoms: _3  and  _4
REMARK    3  A    between atoms: _3  and  _6
REMARK    4  A    between atoms: _6  and  _7
REMARK    5  A    between atoms: _7  and  _8
REMARK    6  A    between atoms: _8  and  _9
REMARK    7  A    between atoms: _19  and  _20
REMARK    8  A    between atoms: _25  and  _27
REMARK    9  A    between atoms: _27  and  _28
REMARK   10  A    between atoms: _27  and  _30
REMARK   11  A    between atoms: _30  and  _31
REMARK   12  A    between atoms: _34  and  _36
REMARK   13  A    between atoms: _36  and  _37
REMARK   14  A    between atoms: _36  and  _39
REMARK   15  A    between atoms: _39  and  _40
REMARK   16  A    between atoms: _43  and  _45
REMARK   17  A    between atoms: _45  and  _46
REMARK   18  A    between atoms: _45  and  _48
REMARK   19  A    between atoms: _48  and  _49
REMARK   20  A    between atoms: _52  and  _54
REMARK   21  A    between atoms: _54  and  _55
REMARK   22  A    between atoms: _54  and  _57
REMARK   23  A    between atoms: _57  and  _58
REMARK   24  A    between atoms: _61  and  _63
REMARK   25  A    between atoms: _63  and  _64
REMARK   26  A    between atoms: _63  and  _66
REMARK   27  A    between atoms: _66  and  _67
REMARK   28  A    between atoms: _70  and  _72
REMARK   29  A    between atoms: _72  and  _73
REMARK   30  A    between atoms: _75  and  _77
REMARK   31  A    between atoms: _77  and  _78
REMARK   32  A    between atoms: _81  and  _83
REMARK   33  A    between atoms: _83  and  _84
REMARK   34  A    between atoms: _83  and  _86
REMARK   35  A    between atoms: _86  and  _87
REMARK   36  A    between atoms: _90  and  _92
REMARK   37  A    between atoms: _92  and  _93
REMARK   38  A    between atoms: _92  and  _95
REMARK   39  A    between atoms: _95  and  _96
REMARK   40  A    between atoms: _99  and  _101
REMARK   41  A    between atoms: _101  and  _102
REMARK   42  A    between atoms: _101  and  _104
REMARK   43  A    between atoms: _104  and  _105
REMARK   44  A    between atoms: _108  and  _110
REMARK   45  A    between atoms: _110  and  _111
REMARK   46  A    between atoms: _110  and  _113
REMARK   47  A    between atoms: _116  and  _118
REMARK   48  A    between atoms: _118  and  _119
REMARK   49  A    between atoms: _118  and  _121
REMARK   50  A    between atoms: _121  and  _122
REMARK   51  A    between atoms: _125  and  _127
REMARK   52  A    between atoms: _127  and  _128
REMARK   53  A    between atoms: _127  and  _130
REMARK   54  A    between atoms: _130  and  _131
REMARK   55  A    between atoms: _131  and  _132
REMARK   56  A    between atoms: _132  and  _133
REMARK   57  A    between atoms: _133  and  _134
REMARK   58  A    between atoms: _138  and  _140
REMARK   59  A    between atoms: _140  and  _141
REMARK   60  A    between atoms: _140  and  _143
REMARK   61  A    between atoms: _143  and  _144
REMARK   62  A    between atoms: _144  and  _145
REMARK   63  A    between atoms: _147  and  _149
REMARK   64  A    between atoms: _149  and  _150
REMARK   65  A    between atoms: _149  and  _152
REMARK   66  A    between atoms: _152  and  _153
REMARK   67  A    between atoms: _156  and  _158
REMARK   68  A    between atoms: _158  and  _159
REMARK   69  A    between atoms: _161  and  _163
REMARK   70  A    between atoms: _163  and  _164
REMARK   71  A    between atoms: _166  and  _168
REMARK   72  A    between atoms: _168  and  _169
REMARK   73  A    between atoms: _168  and  _171
REMARK   74  A    between atoms: _171  and  _172
REMARK   75  A    between atoms: _175  and  _177
REMARK   76  A    between atoms: _177  and  _178
REMARK   77  A    between atoms: _180  and  _182
REMARK   78  A    between atoms: _182  and  _183
REMARK   79  A    between atoms: _185  and  _187
REMARK   80  A    between atoms: _187  and  _188
REMARK   81  A    between atoms: _187  and  _190
REMARK   82  A    between atoms: _190  and  _191
REMARK   83  A    between atoms: _197  and  _199
REMARK   84  A    between atoms: _199  and  _200
REMARK   85  A    between atoms: _199  and  _202
REMARK   86  A    between atoms: _202  and  _203
REMARK   87  A    between atoms: _206  and  _208
REMARK   88  A    between atoms: _208  and  _209
REMARK   89  A    between atoms: _208  and  _211
REMARK   90  A    between atoms: _214  and  _216
REMARK   91  A    between atoms: _216  and  _217
REMARK   92  A    between atoms: _216  and  _219
REMARK   93  A    between atoms: _219  and  _220
REMARK   94  A    between atoms: _224  and  _225
REMARK   95  A    between atoms: _230  and  _232
REMARK   96  A    between atoms: _232  and  _233
REMARK   97  A    between atoms: _232  and  _235
REMARK   98  A    between atoms: _235  and  _236
REMARK   99  A    between atoms: _240  and  _241
REMARK  100  A    between atoms: _246  and  _248
REMARK  101  A    between atoms: _248  and  _249
REMARK  102  A    between atoms: _248  and  _251
REMARK  103  A    between atoms: _254  and  _256
REMARK  104  A    between atoms: _256  and  _257
REMARK  105  A    between atoms: _256  and  _259
REMARK  106  A    between atoms: _259  and  _260
REMARK  107  A    between atoms: _265  and  _267
REMARK  108  A    between atoms: _267  and  _268
REMARK  109  A    between atoms: _267  and  _270
REMARK  110  A    between atoms: _270  and  _271
REMARK  111  A    between atoms: _274  and  _276
REMARK  112  A    between atoms: _276  and  _277
REMARK  113  A    between atoms: _276  and  _279
REMARK  114  A    between atoms: _279  and  _280
REMARK  115  A    between atoms: _283  and  _285
REMARK  116  A    between atoms: _285  and  _286
REMARK  117  A    between atoms: _288  and  _290
REMARK  118  A    between atoms: _290  and  _291
REMARK  119  A    between atoms: _290  and  _293
REMARK  120  A    between atoms: _293  and  _294
REMARK  121  A    between atoms: _294  and  _295
REMARK  122  A    between atoms: _295  and  _296
REMARK  123  A    between atoms: _305  and  _307
REMARK  124  A    between atoms: _307  and  _308
REMARK  125  A    between atoms: _307  and  _310
REMARK  126  A    between atoms: _310  and  _311
REMARK  127  A    between atoms: _316  and  _318
REMARK  128  A    between atoms: _318  and  _319
REMARK  129  A    between atoms: _318  and  _321
REMARK  130  A    between atoms: _321  and  _322
REMARK  131  A    between atoms: _322  and  _323
REMARK  132  A    between atoms: _323  and  _324
REMARK  133  A    between atoms: _334  and  _335
REMARK  134  A    between atoms: _340  and  _342
REMARK  135  A    between atoms: _342  and  _343
REMARK  136  A    between atoms: _342  and  _345
REMARK  137  A    between atoms: _345  and  _346
REMARK  138  A    between atoms: _349  and  _351
REMARK  139  A    between atoms: _351  and  _352
REMARK  140  A    between atoms: _351  and  _354
REMARK  141  A    between atoms: _354  and  _355
REMARK  142  A    between atoms: _358  and  _360
REMARK  143  A    between atoms: _360  and  _361
REMARK  144  A    between atoms: _360  and  _363
REMARK  145  A    between atoms: _363  and  _364
REMARK  146  A    between atoms: _367  and  _369
REMARK  147  A    between atoms: _369  and  _370
REMARK  148  A    between atoms: _369  and  _372
REMARK  149  A    between atoms: _372  and  _373
REMARK  150  A    between atoms: _376  and  _378
REMARK  151  A    between atoms: _378  and  _379
REMARK  152  A    between atoms: _378  and  _381
REMARK  153  A    between atoms: _381  and  _382
REMARK  154  A    between atoms: _385  and  _387
REMARK  155  A    between atoms: _387  and  _388
REMARK  156  A    between atoms: _390  and  _392
REMARK  157  A    between atoms: _392  and  _393
REMARK  158  A    between atoms: _396  and  _398
REMARK  159  A    between atoms: _398  and  _399
REMARK  160  A    between atoms: _398  and  _401
REMARK  161  A    between atoms: _401  and  _402
REMARK  162  A    between atoms: _405  and  _407
REMARK  163  A    between atoms: _407  and  _408
REMARK  164  A    between atoms: _407  and  _410
REMARK  165  A    between atoms: _410  and  _411
REMARK  166  A    between atoms: _414  and  _416
REMARK  167  A    between atoms: _416  and  _417
REMARK  168  A    between atoms: _416  and  _419
REMARK  169  A    between atoms: _419  and  _420
REMARK  170  A    between atoms: _423  and  _425
REMARK  171  A    between atoms: _425  and  _426
REMARK  172  A    between atoms: _425  and  _428
REMARK  173  A    between atoms: _431  and  _433
REMARK  174  A    between atoms: _433  and  _434
REMARK  175  A    between atoms: _433  and  _436
REMARK  176  A    between atoms: _436  and  _437
REMARK  177  A    between atoms: _440  and  _442
REMARK  178  A    between atoms: _442  and  _443
REMARK  179  A    between atoms: _442  and  _445
REMARK  180  A    between atoms: _445  and  _446
REMARK  181  A    between atoms: _446  and  _447
REMARK  182  A    between atoms: _447  and  _448
REMARK  183  A    between atoms: _448  and  _449
REMARK  184  A    between atoms: _453  and  _455
REMARK  185  A    between atoms: _455  and  _456
REMARK  186  A    between atoms: _455  and  _458
REMARK  187  A    between atoms: _458  and  _459
REMARK  188  A    between atoms: _459  and  _460
REMARK  189  A    between atoms: _462  and  _464
REMARK  190  A    between atoms: _464  and  _465
REMARK  191  A    between atoms: _464  and  _467
REMARK  192  A    between atoms: _467  and  _468
REMARK  193  A    between atoms: _471  and  _473
REMARK  194  A    between atoms: _473  and  _474
REMARK  195  A    between atoms: _476  and  _478
REMARK  196  A    between atoms: _478  and  _479
REMARK  197  A    between atoms: _481  and  _483
REMARK  198  A    between atoms: _483  and  _484
REMARK  199  A    between atoms: _483  and  _486
REMARK  200  A    between atoms: _486  and  _487
REMARK  201  A    between atoms: _490  and  _492
REMARK  202  A    between atoms: _492  and  _493
REMARK  203  A    between atoms: _495  and  _497
REMARK  204  A    between atoms: _497  and  _498
REMARK  205  A    between atoms: _500  and  _502
REMARK  206  A    between atoms: _502  and  _503
REMARK  207  A    between atoms: _502  and  _505
REMARK  208  A    between atoms: _505  and  _506
REMARK  209  A    between atoms: _512  and  _514
REMARK  210  A    between atoms: _514  and  _515
REMARK  211  A    between atoms: _514  and  _517
REMARK  212  A    between atoms: _517  and  _518
REMARK  213  A    between atoms: _521  and  _523
REMARK  214  A    between atoms: _523  and  _524
REMARK  215  A    between atoms: _523  and  _526
REMARK  216  A    between atoms: _529  and  _531
REMARK  217  A    between atoms: _531  and  _532
REMARK  218  A    between atoms: _531  and  _534
REMARK  219  A    between atoms: _534  and  _535
REMARK  220  A    between atoms: _539  and  _540
REMARK  221  A    between atoms: _545  and  _547
REMARK  222  A    between atoms: _547  and  _548
REMARK  223  A    between atoms: _547  and  _550
REMARK  224  A    between atoms: _550  and  _551
REMARK  225  A    between atoms: _555  and  _556
REMARK  226  A    between atoms: _561  and  _563
REMARK  227  A    between atoms: _563  and  _564
REMARK  228  A    between atoms: _563  and  _566
REMARK  229  A    between atoms: _569  and  _571
REMARK  230  A    between atoms: _571  and  _572
REMARK  231  A    between atoms: _571  and  _574
REMARK  232  A    between atoms: _574  and  _575
REMARK  233  A    between atoms: _580  and  _582
REMARK  234  A    between atoms: _582  and  _583
REMARK  235  A    between atoms: _582  and  _585
REMARK  236  A    between atoms: _585  and  _586
REMARK  237  A    between atoms: _589  and  _591
REMARK  238  A    between atoms: _591  and  _592
REMARK  239  A    between atoms: _591  and  _594
REMARK  240  A    between atoms: _594  and  _595
REMARK  241  A    between atoms: _598  and  _600
REMARK  242  A    between atoms: _600  and  _601
REMARK  243  A    between atoms: _603  and  _605
REMARK  244  A    between atoms: _605  and  _606
REMARK  245  A    between atoms: _605  and  _608
REMARK  246  A    between atoms: _608  and  _609
REMARK  247  A    between atoms: _609  and  _610
REMARK  248  A    between atoms: _610  and  _611
REMARK  249  A    between atoms: _620  and  _622
REMARK  250  A    between atoms: _622  and  _623
REMARK  251  A    between atoms: _622  and  _625
REMARK  252  A    between atoms: _625  and  _626
REMARK                            x       y       z     vdW  Elec       q    Type
REMARK                         _______ _______ _______ _____ _____    ______ ____
ROOT
ATOM      1  O   HOH     1       6.178  28.600  -3.005  0.00  0.00    +0.000 OA
ENDROOT
TORSDOF 0
REMARK  Name = ../refined-set-2016/1w5y/1w5y_pocket.pdb
REMARK  252 active torsions:
REMARK  status: ('A' for Active; 'I' for Inactive)
REMARK    1  A    between atoms: _1  and  _3
REMARK    2  A    between atoms: _3  and  _4
REMARK    3  A    between atoms: _3  and  _6
REMARK    4  A    between atoms: _6  and  _7
REMARK    5  A    between atoms: _7  and  _8
REMARK    6  A    between atoms: _8  and  _9
REMARK    7  A    between atoms: _19  and  _20
REMARK    8  A    between atoms: _25  and  _27
REMARK    9  A    between atoms: _27  and  _28
REMARK   10  A    between atoms: _27  and  _30
REMARK   11  A    between atoms: _30  and  _31
REMARK   12  A    between atoms: _34  and  _36
REMARK   13  A    between atoms: _36  and  _37
REMARK   14  A    between atoms: _36  and  _39
REMARK   15  A    between atoms: _39  and  _40
REMARK   16  A    between atoms: _43  and  _45
REMARK   17  A    between atoms: _45  and  _46
REMARK   18  A    between atoms: _45  and  _48
REMARK   19  A    between atoms: _48  and  _49
REMARK   20  A    between atoms: _52  and  _54
REMARK   21  A    between atoms: _54  and  _55
REMARK   22  A    between atoms: _54  and  _57
REMARK   23  A    between atoms: _57  and  _58
REMARK   24  A    between atoms: _61  and  _63
REMARK   25  A    between atoms: _63  and  _64
REMARK   26  A    between atoms: _63  and  _66
REMARK   27  A    between atoms: _66  and  _67
REMARK   28  A    between atoms: _70  and  _72
REMARK   29  A    between atoms: _72  and  _73
REMARK   30  A    between atoms: _75  and  _77
REMARK   31  A    between atoms: _77  and  _78
REMARK   32  A    between atoms: _81  and  _83
REMARK   33  A    between atoms: _83  and  _84
REMARK   34  A    between atoms: _83  and  _86
REMARK   35  A    between atoms: _86  and  _87
REMARK   36  A    between atoms: _90  and  _92
REMARK   37  A    between atoms: _92  and  _93
REMARK   38  A    between atoms: _92  and  _95
REMARK   39  A    between atoms: _95  and  _96
REMARK   40  A    between atoms: _99  and  _101
REMARK   41  A    between atoms: _101  and  _102
REMARK   42  A    between atoms: _101  and  _104
REMARK   43  A    between atoms: _104  and  _105
REMARK   44  A    between atoms: _108  and  _110
REMARK   45  A    between atoms: _110  and  _111
REMARK   46  A    between atoms: _110  and  _113
REMARK   47  A    between atoms: _116  and  _118
REMARK   48  A    between atoms: _118  and  _119
REMARK   49  A    between atoms: _118  and  _121
REMARK   50  A    between atoms: _121  and  _122
REMARK   51  A    between atoms: _125  and  _127
REMARK   52  A    between atoms: _127  and  _128
REMARK   53  A    between atoms: _127  and  _130
REMARK   54  A    between atoms: _130  and  _131
REMARK   55  A    between atoms: _131  and  _132
REMARK   56  A    between atoms: _132  and  _133
REMARK   57  A    between atoms: _133  and  _134
REMARK   58  A    between atoms: _138  and  _140
REMARK   59  A    between atoms: _140  and  _141
REMARK   60  A    between atoms: _140  and  _143
REMARK   61  A    between atoms: _143  and  _144
REMARK   62  A    between atoms: _144  and  _145
REMARK   63  A    between atoms: _147  and  _149
REMARK   64  A    between atoms: _149  and  _150
REMARK   65  A    between atoms: _149  and  _152
REMARK   66  A    between atoms: _152  and  _153
REMARK   67  A    between atoms: _156  and  _158
REMARK   68  A    between atoms: _158  and  _159
REMARK   69  A    between atoms: _161  and  _163
REMARK   70  A    between atoms: _163  and  _164
REMARK   71  A    between atoms: _166  and  _168
REMARK   72  A    between atoms: _168  and  _169
REMARK   73  A    between atoms: _168  and  _171
REMARK   74  A    between atoms: _171  and  _172
REMARK   75  A    between atoms: _175  and  _177
REMARK   76  A    between atoms: _177  and  _178
REMARK   77  A    between atoms: _180  and  _182
REMARK   78  A    between atoms: _182  and  _183
REMARK   79  A    between atoms: _185  and  _187
REMARK   80  A    between atoms: _187  and  _188
REMARK   81  A    between atoms: _187  and  _190
REMARK   82  A    between atoms: _190  and  _191
REMARK   83  A    between atoms: _197  and  _199
REMARK   84  A    between atoms: _199  and  _200
REMARK   85  A    between atoms: _199  and  _202
REMARK   86  A    between atoms: _202  and  _203
REMARK   87  A    between atoms: _206  and  _208
REMARK   88  A    between atoms: _208  and  _209
REMARK   89  A    between atoms: _208  and  _211
REMARK   90  A    between atoms: _214  and  _216
REMARK   91  A    between atoms: _216  and  _217
REMARK   92  A    between atoms: _216  and  _219
REMARK   93  A    between atoms: _219  and  _220
REMARK   94  A    between atoms: _224  and  _225
REMARK   95  A    between atoms: _230  and  _232
REMARK   96  A    between atoms: _232  and  _233
REMARK   97  A    between atoms: _232  and  _235
REMARK   98  A    between atoms: _235  and  _236
REMARK   99  A    between atoms: _240  and  _241
REMARK  100  A    between atoms: _246  and  _248
REMARK  101  A    between atoms: _248  and  _249
REMARK  102  A    between atoms: _248  and  _251
REMARK  103  A    between atoms: _254  and  _256
REMARK  104  A    between atoms: _256  and  _257
REMARK  105  A    between atoms: _256  and  _259
REMARK  106  A    between atoms: _259  and  _260
REMARK  107  A    between atoms: _265  and  _267
REMARK  108  A    between atoms: _267  and  _268
REMARK  109  A    between atoms: _267  and  _270
REMARK  110  A    between atoms: _270  and  _271
REMARK  111  A    between atoms: _274  and  _276
REMARK  112  A    between atoms: _276  and  _277
REMARK  113  A    between atoms: _276  and  _279
REMARK  114  A    between atoms: _279  and  _280
REMARK  115  A    between atoms: _283  and  _285
REMARK  116  A    between atoms: _285  and  _286
REMARK  117  A    between atoms: _288  and  _290
REMARK  118  A    between atoms: _290  and  _291
REMARK  119  A    between atoms: _290  and  _293
REMARK  120  A    between atoms: _293  and  _294
REMARK  121  A    between atoms: _294  and  _295
REMARK  122  A    between atoms: _295  and  _296
REMARK  123  A    between atoms: _305  and  _307
REMARK  124  A    between atoms: _307  and  _308
REMARK  125  A    between atoms: _307  and  _310
REMARK  126  A    between atoms: _310  and  _311
REMARK  127  A    between atoms: _316  and  _318
REMARK  128  A    between atoms: _318  and  _319
REMARK  129  A    between atoms: _318  and  _321
REMARK  130  A    between atoms: _321  and  _322
REMARK  131  A    between atoms: _322  and  _323
REMARK  132  A    between atoms: _323  and  _324
REMARK  133  A    between atoms: _334  and  _335
REMARK  134  A    between atoms: _340  and  _342
REMARK  135  A    between atoms: _342  and  _343
REMARK  136  A    between atoms: _342  and  _345
REMARK  137  A    between atoms: _345  and  _346
REMARK  138  A    between atoms: _349  and  _351
REMARK  139  A    between atoms: _351  and  _352
REMARK  140  A    between atoms: _351  and  _354
REMARK  141  A    between atoms: _354  and  _355
REMARK  142  A    between atoms: _358  and  _360
REMARK  143  A    between atoms: _360  and  _361
REMARK  144  A    between atoms: _360  and  _363
REMARK  145  A    between atoms: _363  and  _364
REMARK  146  A    between atoms: _367  and  _369
REMARK  147  A    between atoms: _369  and  _370
REMARK  148  A    between atoms: _369  and  _372
REMARK  149  A    between atoms: _372  and  _373
REMARK  150  A    between atoms: _376  and  _378
REMARK  151  A    between atoms: _378  and  _379
REMARK  152  A    between atoms: _378  and  _381
REMARK  153  A    between atoms: _381  and  _382
REMARK  154  A    between atoms: _385  and  _387
REMARK  155  A    between atoms: _387  and  _388
REMARK  156  A    between atoms: _390  and  _392
REMARK  157  A    between atoms: _392  and  _393
REMARK  158  A    between atoms: _396  and  _398
REMARK  159  A    between atoms: _398  and  _399
REMARK  160  A    between atoms: _398  and  _401
REMARK  161  A    between atoms: _401  and  _402
REMARK  162  A    between atoms: _405  and  _407
REMARK  163  A    between atoms: _407  and  _408
REMARK  164  A    between atoms: _407  and  _410
REMARK  165  A    between atoms: _410  and  _411
REMARK  166  A    between atoms: _414  and  _416
REMARK  167  A    between atoms: _416  and  _417
REMARK  168  A    between atoms: _416  and  _419
REMARK  169  A    between atoms: _419  and  _420
REMARK  170  A    between atoms: _423  and  _425
REMARK  171  A    between atoms: _425  and  _426
REMARK  172  A    between atoms: _425  and  _428
REMARK  173  A    between atoms: _431  and  _433
REMARK  174  A    between atoms: _433  and  _434
REMARK  175  A    between atoms: _433  and  _436
REMARK  176  A    between atoms: _436  and  _437
REMARK  177  A    between atoms: _440  and  _442
REMARK  178  A    between atoms: _442  and  _443
REMARK  179  A    between atoms: _442  and  _445
REMARK  180  A    between atoms: _445  and  _446
REMARK  181  A    between atoms: _446  and  _447
REMARK  182  A    between atoms: _447  and  _448
REMARK  183  A    between atoms: _448  and  _449
REMARK  184  A    between atoms: _453  and  _455
REMARK  185  A    between atoms: _455  and  _456
REMARK  186  A    between atoms: _455  and  _458
REMARK  187  A    between atoms: _458  and  _459
REMARK  188  A    between atoms: _459  and  _460
REMARK  189  A    between atoms: _462  and  _464
REMARK  190  A    between atoms: _464  and  _465
REMARK  191  A    between atoms: _464  and  _467
REMARK  192  A    between atoms: _467  and  _468
REMARK  193  A    between atoms: _471  and  _473
REMARK  194  A    between atoms: _473  and  _474
REMARK  195  A    between atoms: _476  and  _478
REMARK  196  A    between atoms: _478  and  _479
REMARK  197  A    between atoms: _481  and  _483
REMARK  198  A    between atoms: _483  and  _484
REMARK  199  A    between atoms: _483  and  _486
REMARK  200  A    between atoms: _486  and  _487
REMARK  201  A    between atoms: _490  and  _492
REMARK  202  A    between atoms: _492  and  _493
REMARK  203  A    between atoms: _495  and  _497
REMARK  204  A    between atoms: _497  and  _498
REMARK  205  A    between atoms: _500  and  _502
REMARK  206  A    between atoms: _502  and  _503
REMARK  207  A    between atoms: _502  and  _505
REMARK  208  A    between atoms: _505  and  _506
REMARK  209  A    between atoms: _512  and  _514
REMARK  210  A    between atoms: _514  and  _515
REMARK  211  A    between atoms: _514  and  _517
REMARK  212  A    between atoms: _517  and  _518
REMARK  213  A    between atoms: _521  and  _523
REMARK  214  A    between atoms: _523  and  _524
REMARK  215  A    between atoms: _523  and  _526
REMARK  216  A    between atoms: _529  and  _531
REMARK  217  A    between atoms: _531  and  _532
REMARK  218  A    between atoms: _531  and  _534
REMARK  219  A    between atoms: _534  and  _535
REMARK  220  A    between atoms: _539  and  _540
REMARK  221  A    between atoms: _545  and  _547
REMARK  222  A    between atoms: _547  and  _548
REMARK  223  A    between atoms: _547  and  _550
REMARK  224  A    between atoms: _550  and  _551
REMARK  225  A    between atoms: _555  and  _556
REMARK  226  A    between atoms: _561  and  _563
REMARK  227  A    between atoms: _563  and  _564
REMARK  228  A    between atoms: _563  and  _566
REMARK  229  A    between atoms: _569  and  _571
REMARK  230  A    between atoms: _571  and  _572
REMARK  231  A    between atoms: _571  and  _574
REMARK  232  A    between atoms: _574  and  _575
REMARK  233  A    between atoms: _580  and  _582
REMARK  234  A    between atoms: _582  and  _583
REMARK  235  A    between atoms: _582  and  _585
REMARK  236  A    between atoms: _585  and  _586
REMARK  237  A    between atoms: _589  and  _591
REMARK  238  A    between atoms: _591  and  _592
REMARK  239  A    between atoms: _591  and  _594
REMARK  240  A    between atoms: _594  and  _595
REMARK  241  A    between atoms: _598  and  _600
REMARK  242  A    between atoms: _600  and  _601
REMARK  243  A    between atoms: _603  and  _605
REMARK  244  A    between atoms: _605  and  _606
REMARK  245  A    between atoms: _605  and  _608
REMARK  246  A    between atoms: _608  and  _609
REMARK  247  A    between atoms: _609  and  _610
REMARK  248  A    between atoms: _610  and  _611
REMARK  249  A    between atoms: _620  and  _622
REMARK  250  A    between atoms: _622  and  _623
REMARK  251  A    between atoms: _622  and  _625
REMARK  252  A    between atoms: _625  and  _626
REMARK                            x       y       z     vdW  Elec       q    Type
REMARK                         _______ _______ _______ _____ _____    ______ ____
ROOT
ATOM      1  O   HOH     1      16.742  16.042  11.496  0.00  0.00    +0.000 OA
ENDROOT
TORSDOF 0
REMARK  Name = ../refined-set-2016/1w5y/1w5y_pocket.pdb
REMARK  252 active torsions:
REMARK  status: ('A' for Active; 'I' for Inactive)
REMARK    1  A    between atoms: _1  and  _3
REMARK    2  A    between atoms: _3  and  _4
REMARK    3  A    between atoms: _3  and  _6
REMARK    4  A    between atoms: _6  and  _7
REMARK    5  A    between atoms: _7  and  _8
REMARK    6  A    between atoms: _8  and  _9
REMARK    7  A    between atoms: _19  and  _20
REMARK    8  A    between atoms: _25  and  _27
REMARK    9  A    between atoms: _27  and  _28
REMARK   10  A    between atoms: _27  and  _30
REMARK   11  A    between atoms: _30  and  _31
REMARK   12  A    between atoms: _34  and  _36
REMARK   13  A    between atoms: _36  and  _37
REMARK   14  A    between atoms: _36  and  _39
REMARK   15  A    between atoms: _39  and  _40
REMARK   16  A    between atoms: _43  and  _45
REMARK   17  A    between atoms: _45  and  _46
REMARK   18  A    between atoms: _45  and  _48
REMARK   19  A    between atoms: _48  and  _49
REMARK   20  A    between atoms: _52  and  _54
REMARK   21  A    between atoms: _54  and  _55
REMARK   22  A    between atoms: _54  and  _57
REMARK   23  A    between atoms: _57  and  _58
REMARK   24  A    between atoms: _61  and  _63
REMARK   25  A    between atoms: _63  and  _64
REMARK   26  A    between atoms: _63  and  _66
REMARK   27  A    between atoms: _66  and  _67
REMARK   28  A    between atoms: _70  and  _72
REMARK   29  A    between atoms: _72  and  _73
REMARK   30  A    between atoms: _75  and  _77
REMARK   31  A    between atoms: _77  and  _78
REMARK   32  A    between atoms: _81  and  _83
REMARK   33  A    between atoms: _83  and  _84
REMARK   34  A    between atoms: _83  and  _86
REMARK   35  A    between atoms: _86  and  _87
REMARK   36  A    between atoms: _90  and  _92
REMARK   37  A    between atoms: _92  and  _93
REMARK   38  A    between atoms: _92  and  _95
REMARK   39  A    between atoms: _95  and  _96
REMARK   40  A    between atoms: _99  and  _101
REMARK   41  A    between atoms: _101  and  _102
REMARK   42  A    between atoms: _101  and  _104
REMARK   43  A    between atoms: _104  and  _105
REMARK   44  A    between atoms: _108  and  _110
REMARK   45  A    between atoms: _110  and  _111
REMARK   46  A    between atoms: _110  and  _113
REMARK   47  A    between atoms: _116  and  _118
REMARK   48  A    between atoms: _118  and  _119
REMARK   49  A    between atoms: _118  and  _121
REMARK   50  A    between atoms: _121  and  _122
REMARK   51  A    between atoms: _125  and  _127
REMARK   52  A    between atoms: _127  and  _128
REMARK   53  A    between atoms: _127  and  _130
REMARK   54  A    between atoms: _130  and  _131
REMARK   55  A    between atoms: _131  and  _132
REMARK   56  A    between atoms: _132  and  _133
REMARK   57  A    between atoms: _133  and  _134
REMARK   58  A    between atoms: _138  and  _140
REMARK   59  A    between atoms: _140  and  _141
REMARK   60  A    between atoms: _140  and  _143
REMARK   61  A    between atoms: _143  and  _144
REMARK   62  A    between atoms: _144  and  _145
REMARK   63  A    between atoms: _147  and  _149
REMARK   64  A    between atoms: _149  and  _150
REMARK   65  A    between atoms: _149  and  _152
REMARK   66  A    between atoms: _152  and  _153
REMARK   67  A    between atoms: _156  and  _158
REMARK   68  A    between atoms: _158  and  _159
REMARK   69  A    between atoms: _161  and  _163
REMARK   70  A    between atoms: _163  and  _164
REMARK   71  A    between atoms: _166  and  _168
REMARK   72  A    between atoms: _168  and  _169
REMARK   73  A    between atoms: _168  and  _171
REMARK   74  A    between atoms: _171  and  _172
REMARK   75  A    between atoms: _175  and  _177
REMARK   76  A    between atoms: _177  and  _178
REMARK   77  A    between atoms: _180  and  _182
REMARK   78  A    between atoms: _182  and  _183
REMARK   79  A    between atoms: _185  and  _187
REMARK   80  A    between atoms: _187  and  _188
REMARK   81  A    between atoms: _187  and  _190
REMARK   82  A    between atoms: _190  and  _191
REMARK   83  A    between atoms: _197  and  _199
REMARK   84  A    between atoms: _199  and  _200
REMARK   85  A    between atoms: _199  and  _202
REMARK   86  A    between atoms: _202  and  _203
REMARK   87  A    between atoms: _206  and  _208
REMARK   88  A    between atoms: _208  and  _209
REMARK   89  A    between atoms: _208  and  _211
REMARK   90  A    between atoms: _214  and  _216
REMARK   91  A    between atoms: _216  and  _217
REMARK   92  A    between atoms: _216  and  _219
REMARK   93  A    between atoms: _219  and  _220
REMARK   94  A    between atoms: _224  and  _225
REMARK   95  A    between atoms: _230  and  _232
REMARK   96  A    between atoms: _232  and  _233
REMARK   97  A    between atoms: _232  and  _235
REMARK   98  A    between atoms: _235  and  _236
REMARK   99  A    between atoms: _240  and  _241
REMARK  100  A    between atoms: _246  and  _248
REMARK  101  A    between atoms: _248  and  _249
REMARK  102  A    between atoms: _248  and  _251
REMARK  103  A    between atoms: _254  and  _256
REMARK  104  A    between atoms: _256  and  _257
REMARK  105  A    between atoms: _256  and  _259
REMARK  106  A    between atoms: _259  and  _260
REMARK  107  A    between atoms: _265  and  _267
REMARK  108  A    between atoms: _267  and  _268
REMARK  109  A    between atoms: _267  and  _270
REMARK  110  A    between atoms: _270  and  _271
REMARK  111  A    between atoms: _274  and  _276
REMARK  112  A    between atoms: _276  and  _277
REMARK  113  A    between atoms: _276  and  _279
REMARK  114  A    between atoms: _279  and  _280
REMARK  115  A    between atoms: _283  and  _285
REMARK  116  A    between atoms: _285  and  _286
REMARK  117  A    between atoms: _288  and  _290
REMARK  118  A    between atoms: _290  and  _291
REMARK  119  A    between atoms: _290  and  _293
REMARK  120  A    between atoms: _293  and  _294
REMARK  121  A    between atoms: _294  and  _295
REMARK  122  A    between atoms: _295  and  _296
REMARK  123  A    between atoms: _305  and  _307
REMARK  124  A    between atoms: _307  and  _308
REMARK  125  A    between atoms: _307  and  _310
REMARK  126  A    between atoms: _310  and  _311
REMARK  127  A    between atoms: _316  and  _318
REMARK  128  A    between atoms: _318  and  _319
REMARK  129  A    between atoms: _318  and  _321
REMARK  130  A    between atoms: _321  and  _322
REMARK  131  A    between atoms: _322  and  _323
REMARK  132  A    between atoms: _323  and  _324
REMARK  133  A    between atoms: _334  and  _335
REMARK  134  A    between atoms: _340  and  _342
REMARK  135  A    between atoms: _342  and  _343
REMARK  136  A    between atoms: _342  and  _345
REMARK  137  A    between atoms: _345  and  _346
REMARK  138  A    between atoms: _349  and  _351
REMARK  139  A    between atoms: _351  and  _352
REMARK  140  A    between atoms: _351  and  _354
REMARK  141  A    between atoms: _354  and  _355
REMARK  142  A    between atoms: _358  and  _360
REMARK  143  A    between atoms: _360  and  _361
REMARK  144  A    between atoms: _360  and  _363
REMARK  145  A    between atoms: _363  and  _364
REMARK  146  A    between atoms: _367  and  _369
REMARK  147  A    between atoms: _369  and  _370
REMARK  148  A    between atoms: _369  and  _372
REMARK  149  A    between atoms: _372  and  _373
REMARK  150  A    between atoms: _376  and  _378
REMARK  151  A    between atoms: _378  and  _379
REMARK  152  A    between atoms: _378  and  _381
REMARK  153  A    between atoms: _381  and  _382
REMARK  154  A    between atoms: _385  and  _387
REMARK  155  A    between atoms: _387  and  _388
REMARK  156  A    between atoms: _390  and  _392
REMARK  157  A    between atoms: _392  and  _393
REMARK  158  A    between atoms: _396  and  _398
REMARK  159  A    between atoms: _398  and  _399
REMARK  160  A    between atoms: _398  and  _401
REMARK  161  A    between atoms: _401  and  _402
REMARK  162  A    between atoms: _405  and  _407
REMARK  163  A    between atoms: _407  and  _408
REMARK  164  A    between atoms: _407  and  _410
REMARK  165  A    between atoms: _410  and  _411
REMARK  166  A    between atoms: _414  and  _416
REMARK  167  A    between atoms: _416  and  _417
REMARK  168  A    between atoms: _416  and  _419
REMARK  169  A    between atoms: _419  and  _420
REMARK  170  A    between atoms: _423  and  _425
REMARK  171  A    between atoms: _425  and  _426
REMARK  172  A    between atoms: _425  and  _428
REMARK  173  A    between atoms: _431  and  _433
REMARK  174  A    between atoms: _433  and  _434
REMARK  175  A    between atoms: _433  and  _436
REMARK  176  A    between atoms: _436  and  _437
REMARK  177  A    between atoms: _440  and  _442
REMARK  178  A    between atoms: _442  and  _443
REMARK  179  A    between atoms: _442  and  _445
REMARK  180  A    between atoms: _445  and  _446
REMARK  181  A    between atoms: _446  and  _447
REMARK  182  A    between atoms: _447  and  _448
REMARK  183  A    between atoms: _448  and  _449
REMARK  184  A    between atoms: _453  and  _455
REMARK  185  A    between atoms: _455  and  _456
REMARK  186  A    between atoms: _455  and  _458
REMARK  187  A    between atoms: _458  and  _459
REMARK  188  A    between atoms: _459  and  _460
REMARK  189  A    between atoms: _462  and  _464
REMARK  190  A    between atoms: _464  and  _465
REMARK  191  A    between atoms: _464  and  _467
REMARK  192  A    between atoms: _467  and  _468
REMARK  193  A    between atoms: _471  and  _473
REMARK  194  A    between atoms: _473  and  _474
REMARK  195  A    between atoms: _476  and  _478
REMARK  196  A    between atoms: _478  and  _479
REMARK  197  A    between atoms: _481  and  _483
REMARK  198  A    between atoms: _483  and  _484
REMARK  199  A    between atoms: _483  and  _486
REMARK  200  A    between atoms: _486  and  _487
REMARK  201  A    between atoms: _490  and  _492
REMARK  202  A    between atoms: _492  and  _493
REMARK  203  A    between atoms: _495  and  _497
REMARK  204  A    between atoms: _497  and  _498
REMARK  205  A    between atoms: _500  and  _502
REMARK  206  A    between atoms: _502  and  _503
REMARK  207  A    between atoms: _502  and  _505
REMARK  208  A    between atoms: _505  and  _506
REMARK  209  A    between atoms: _512  and  _514
REMARK  210  A    between atoms: _514  and  _515
REMARK  211  A    between atoms: _514  and  _517
REMARK  212  A    between atoms: _517  and  _518
REMARK  213  A    between atoms: _521  and  _523
REMARK  214  A    between atoms: _523  and  _524
REMARK  215  A    between atoms: _523  and  _526
REMARK  216  A    between atoms: _529  and  _531
REMARK  217  A    between atoms: _531  and  _532
REMARK  218  A    between atoms: _531  and  _534
REMARK  219  A    between atoms: _534  and  _535
REMARK  220  A    between atoms: _539  and  _540
REMARK  221  A    between atoms: _545  and  _547
REMARK  222  A    between atoms: _547  and  _548
REMARK  223  A    between atoms: _547  and  _550
REMARK  224  A    between atoms: _550  and  _551
REMARK  225  A    between atoms: _555  and  _556
REMARK  226  A    between atoms: _561  and  _563
REMARK  227  A    between atoms: _563  and  _564
REMARK  228  A    between atoms: _563  and  _566
REMARK  229  A    between atoms: _569  and  _571
REMARK  230  A    between atoms: _571  and  _572
REMARK  231  A    between atoms: _571  and  _574
REMARK  232  A    between atoms: _574  and  _575
REMARK  233  A    between atoms: _580  and  _582
REMARK  234  A    between atoms: _582  and  _583
REMARK  235  A    between atoms: _582  and  _585
REMARK  236  A    between atoms: _585  and  _586
REMARK  237  A    between atoms: _589  and  _591
REMARK  238  A    between atoms: _591  and  _592
REMARK  239  A    between atoms: _591  and  _594
REMARK  240  A    between atoms: _594  and  _595
REMARK  241  A    between atoms: _598  and  _600
REMARK  242  A    between atoms: _600  and  _601
REMARK  243  A    between atoms: _603  and  _605
REMARK  244  A    between atoms: _605  and  _606
REMARK  245  A    between atoms: _605  and  _608
REMARK  246  A    between atoms: _608  and  _609
REMARK  247  A    between atoms: _609  and  _610
REMARK  248  A    between atoms: _610  and  _611
REMARK  249  A    between atoms: _620  and  _622
REMARK  250  A    between atoms: _622  and  _623
REMARK  251  A    between atoms: _622  and  _625
REMARK  252  A    between atoms: _625  and  _626
REMARK                            x       y       z     vdW  Elec       q    Type
REMARK                         _______ _______ _______ _____ _____    ______ ____
ROOT
ATOM      1  O   HOH     1      21.964  23.765   4.870  0.00  0.00    +0.000 OA
ENDROOT
TORSDOF 0
REMARK  Name = ../refined-set-2016/1w5y/1w5y_pocket.pdb
REMARK  252 active torsions:
REMARK  status: ('A' for Active; 'I' for Inactive)
REMARK    1  A    between atoms: _1  and  _3
REMARK    2  A    between atoms: _3  and  _4
REMARK    3  A    between atoms: _3  and  _6
REMARK    4  A    between atoms: _6  and  _7
REMARK    5  A    between atoms: _7  and  _8
REMARK    6  A    between atoms: _8  and  _9
REMARK    7  A    between atoms: _19  and  _20
REMARK    8  A    between atoms: _25  and  _27
REMARK    9  A    between atoms: _27  and  _28
REMARK   10  A    between atoms: _27  and  _30
REMARK   11  A    between atoms: _30  and  _31
REMARK   12  A    between atoms: _34  and  _36
REMARK   13  A    between atoms: _36  and  _37
REMARK   14  A    between atoms: _36  and  _39
REMARK   15  A    between atoms: _39  and  _40
REMARK   16  A    between atoms: _43  and  _45
REMARK   17  A    between atoms: _45  and  _46
REMARK   18  A    between atoms: _45  and  _48
REMARK   19  A    between atoms: _48  and  _49
REMARK   20  A    between atoms: _52  and  _54
REMARK   21  A    between atoms: _54  and  _55
REMARK   22  A    between atoms: _54  and  _57
REMARK   23  A    between atoms: _57  and  _58
REMARK   24  A    between atoms: _61  and  _63
REMARK   25  A    between atoms: _63  and  _64
REMARK   26  A    between atoms: _63  and  _66
REMARK   27  A    between atoms: _66  and  _67
REMARK   28  A    between atoms: _70  and  _72
REMARK   29  A    between atoms: _72  and  _73
REMARK   30  A    between atoms: _75  and  _77
REMARK   31  A    between atoms: _77  and  _78
REMARK   32  A    between atoms: _81  and  _83
REMARK   33  A    between atoms: _83  and  _84
REMARK   34  A    between atoms: _83  and  _86
REMARK   35  A    between atoms: _86  and  _87
REMARK   36  A    between atoms: _90  and  _92
REMARK   37  A    between atoms: _92  and  _93
REMARK   38  A    between atoms: _92  and  _95
REMARK   39  A    between atoms: _95  and  _96
REMARK   40  A    between atoms: _99  and  _101
REMARK   41  A    between atoms: _101  and  _102
REMARK   42  A    between atoms: _101  and  _104
REMARK   43  A    between atoms: _104  and  _105
REMARK   44  A    between atoms: _108  and  _110
REMARK   45  A    between atoms: _110  and  _111
REMARK   46  A    between atoms: _110  and  _113
REMARK   47  A    between atoms: _116  and  _118
REMARK   48  A    between atoms: _118  and  _119
REMARK   49  A    between atoms: _118  and  _121
REMARK   50  A    between atoms: _121  and  _122
REMARK   51  A    between atoms: _125  and  _127
REMARK   52  A    between atoms: _127  and  _128
REMARK   53  A    between atoms: _127  and  _130
REMARK   54  A    between atoms: _130  and  _131
REMARK   55  A    between atoms: _131  and  _132
REMARK   56  A    between atoms: _132  and  _133
REMARK   57  A    between atoms: _133  and  _134
REMARK   58  A    between atoms: _138  and  _140
REMARK   59  A    between atoms: _140  and  _141
REMARK   60  A    between atoms: _140  and  _143
REMARK   61  A    between atoms: _143  and  _144
REMARK   62  A    between atoms: _144  and  _145
REMARK   63  A    between atoms: _147  and  _149
REMARK   64  A    between atoms: _149  and  _150
REMARK   65  A    between atoms: _149  and  _152
REMARK   66  A    between atoms: _152  and  _153
REMARK   67  A    between atoms: _156  and  _158
REMARK   68  A    between atoms: _158  and  _159
REMARK   69  A    between atoms: _161  and  _163
REMARK   70  A    between atoms: _163  and  _164
REMARK   71  A    between atoms: _166  and  _168
REMARK   72  A    between atoms: _168  and  _169
REMARK   73  A    between atoms: _168  and  _171
REMARK   74  A    between atoms: _171  and  _172
REMARK   75  A    between atoms: _175  and  _177
REMARK   76  A    between atoms: _177  and  _178
REMARK   77  A    between atoms: _180  and  _182
REMARK   78  A    between atoms: _182  and  _183
REMARK   79  A    between atoms: _185  and  _187
REMARK   80  A    between atoms: _187  and  _188
REMARK   81  A    between atoms: _187  and  _190
REMARK   82  A    between atoms: _190  and  _191
REMARK   83  A    between atoms: _197  and  _199
REMARK   84  A    between atoms: _199  and  _200
REMARK   85  A    between atoms: _199  and  _202
REMARK   86  A    between atoms: _202  and  _203
REMARK   87  A    between atoms: _206  and  _208
REMARK   88  A    between atoms: _208  and  _209
REMARK   89  A    between atoms: _208  and  _211
REMARK   90  A    between atoms: _214  and  _216
REMARK   91  A    between atoms: _216  and  _217
REMARK   92  A    between atoms: _216  and  _219
REMARK   93  A    between atoms: _219  and  _220
REMARK   94  A    between atoms: _224  and  _225
REMARK   95  A    between atoms: _230  and  _232
REMARK   96  A    between atoms: _232  and  _233
REMARK   97  A    between atoms: _232  and  _235
REMARK   98  A    between atoms: _235  and  _236
REMARK   99  A    between atoms: _240  and  _241
REMARK  100  A    between atoms: _246  and  _248
REMARK  101  A    between atoms: _248  and  _249
REMARK  102  A    between atoms: _248  and  _251
REMARK  103  A    between atoms: _254  and  _256
REMARK  104  A    between atoms: _256  and  _257
REMARK  105  A    between atoms: _256  and  _259
REMARK  106  A    between atoms: _259  and  _260
REMARK  107  A    between atoms: _265  and  _267
REMARK  108  A    between atoms: _267  and  _268
REMARK  109  A    between atoms: _267  and  _270
REMARK  110  A    between atoms: _270  and  _271
REMARK  111  A    between atoms: _274  and  _276
REMARK  112  A    between atoms: _276  and  _277
REMARK  113  A    between atoms: _276  and  _279
REMARK  114  A    between atoms: _279  and  _280
REMARK  115  A    between atoms: _283  and  _285
REMARK  116  A    between atoms: _285  and  _286
REMARK  117  A    between atoms: _288  and  _290
REMARK  118  A    between atoms: _290  and  _291
REMARK  119  A    between atoms: _290  and  _293
REMARK  120  A    between atoms: _293  and  _294
REMARK  121  A    between atoms: _294  and  _295
REMARK  122  A    between atoms: _295  and  _296
REMARK  123  A    between atoms: _305  and  _307
REMARK  124  A    between atoms: _307  and  _308
REMARK  125  A    between atoms: _307  and  _310
REMARK  126  A    between atoms: _310  and  _311
REMARK  127  A    between atoms: _316  and  _318
REMARK  128  A    between atoms: _318  and  _319
REMARK  129  A    between atoms: _318  and  _321
REMARK  130  A    between atoms: _321  and  _322
REMARK  131  A    between atoms: _322  and  _323
REMARK  132  A    between atoms: _323  and  _324
REMARK  133  A    between atoms: _334  and  _335
REMARK  134  A    between atoms: _340  and  _342
REMARK  135  A    between atoms: _342  and  _343
REMARK  136  A    between atoms: _342  and  _345
REMARK  137  A    between atoms: _345  and  _346
REMARK  138  A    between atoms: _349  and  _351
REMARK  139  A    between atoms: _351  and  _352
REMARK  140  A    between atoms: _351  and  _354
REMARK  141  A    between atoms: _354  and  _355
REMARK  142  A    between atoms: _358  and  _360
REMARK  143  A    between atoms: _360  and  _361
REMARK  144  A    between atoms: _360  and  _363
REMARK  145  A    between atoms: _363  and  _364
REMARK  146  A    between atoms: _367  and  _369
REMARK  147  A    between atoms: _369  and  _370
REMARK  148  A    between atoms: _369  and  _372
REMARK  149  A    between atoms: _372  and  _373
REMARK  150  A    between atoms: _376  and  _378
REMARK  151  A    between atoms: _378  and  _379
REMARK  152  A    between atoms: _378  and  _381
REMARK  153  A    between atoms: _381  and  _382
REMARK  154  A    between atoms: _385  and  _387
REMARK  155  A    between atoms: _387  and  _388
REMARK  156  A    between atoms: _390  and  _392
REMARK  157  A    between atoms: _392  and  _393
REMARK  158  A    between atoms: _396  and  _398
REMARK  159  A    between atoms: _398  and  _399
REMARK  160  A    between atoms: _398  and  _401
REMARK  161  A    between atoms: _401  and  _402
REMARK  162  A    between atoms: _405  and  _407
REMARK  163  A    between atoms: _407  and  _408
REMARK  164  A    between atoms: _407  and  _410
REMARK  165  A    between atoms: _410  and  _411
REMARK  166  A    between atoms: _414  and  _416
REMARK  167  A    between atoms: _416  and  _417
REMARK  168  A    between atoms: _416  and  _419
REMARK  169  A    between atoms: _419  and  _420
REMARK  170  A    between atoms: _423  and  _425
REMARK  171  A    between atoms: _425  and  _426
REMARK  172  A    between atoms: _425  and  _428
REMARK  173  A    between atoms: _431  and  _433
REMARK  174  A    between atoms: _433  and  _434
REMARK  175  A    between atoms: _433  and  _436
REMARK  176  A    between atoms: _436  and  _437
REMARK  177  A    between atoms: _440  and  _442
REMARK  178  A    between atoms: _442  and  _443
REMARK  179  A    between atoms: _442  and  _445
REMARK  180  A    between atoms: _445  and  _446
REMARK  181  A    between atoms: _446  and  _447
REMARK  182  A    between atoms: _447  and  _448
REMARK  183  A    between atoms: _448  and  _449
REMARK  184  A    between atoms: _453  and  _455
REMARK  185  A    between atoms: _455  and  _456
REMARK  186  A    between atoms: _455  and  _458
REMARK  187  A    between atoms: _458  and  _459
REMARK  188  A    between atoms: _459  and  _460
REMARK  189  A    between atoms: _462  and  _464
REMARK  190  A    between atoms: _464  and  _465
REMARK  191  A    between atoms: _464  and  _467
REMARK  192  A    between atoms: _467  and  _468
REMARK  193  A    between atoms: _471  and  _473
REMARK  194  A    between atoms: _473  and  _474
REMARK  195  A    between atoms: _476  and  _478
REMARK  196  A    between atoms: _478  and  _479
REMARK  197  A    between atoms: _481  and  _483
REMARK  198  A    between atoms: _483  and  _484
REMARK  199  A    between atoms: _483  and  _486
REMARK  200  A    between atoms: _486  and  _487
REMARK  201  A    between atoms: _490  and  _492
REMARK  202  A    between atoms: _492  and  _493
REMARK  203  A    between atoms: _495  and  _497
REMARK  204  A    between atoms: _497  and  _498
REMARK  205  A    between atoms: _500  and  _502
REMARK  206  A    between atoms: _502  and  _503
REMARK  207  A    between atoms: _502  and  _505
REMARK  208  A    between atoms: _505  and  _506
REMARK  209  A    between atoms: _512  and  _514
REMARK  210  A    between atoms: _514  and  _515
REMARK  211  A    between atoms: _514  and  _517
REMARK  212  A    between atoms: _517  and  _518
REMARK  213  A    between atoms: _521  and  _523
REMARK  214  A    between atoms: _523  and  _524
REMARK  215  A    between atoms: _523  and  _526
REMARK  216  A    between atoms: _529  and  _531
REMARK  217  A    between atoms: _531  and  _532
REMARK  218  A    between atoms: _531  and  _534
REMARK  219  A    between atoms: _534  and  _535
REMARK  220  A    between atoms: _539  and  _540
REMARK  221  A    between atoms: _545  and  _547
REMARK  222  A    between atoms: _547  and  _548
REMARK  223  A    between atoms: _547  and  _550
REMARK  224  A    between atoms: _550  and  _551
REMARK  225  A    between atoms: _555  and  _556
REMARK  226  A    between atoms: _561  and  _563
REMARK  227  A    between atoms: _563  and  _564
REMARK  228  A    between atoms: _563  and  _566
REMARK  229  A    between atoms: _569  and  _571
REMARK  230  A    between atoms: _571  and  _572
REMARK  231  A    between atoms: _571  and  _574
REMARK  232  A    between atoms: _574  and  _575
REMARK  233  A    between atoms: _580  and  _582
REMARK  234  A    between atoms: _582  and  _583
REMARK  235  A    between atoms: _582  and  _585
REMARK  236  A    between atoms: _585  and  _586
REMARK  237  A    between atoms: _589  and  _591
REMARK  238  A    between atoms: _591  and  _592
REMARK  239  A    between atoms: _591  and  _594
REMARK  240  A    between atoms: _594  and  _595
REMARK  241  A    between atoms: _598  and  _600
REMARK  242  A    between atoms: _600  and  _601
REMARK  243  A    between atoms: _603  and  _605
REMARK  244  A    between atoms: _605  and  _606
REMARK  245  A    between atoms: _605  and  _608
REMARK  246  A    between atoms: _608  and  _609
REMARK  247  A    between atoms: _609  and  _610
REMARK  248  A    between atoms: _610  and  _611
REMARK  249  A    between atoms: _620  and  _622
REMARK  250  A    between atoms: _622  and  _623
REMARK  251  A    between atoms: _622  and  _625
REMARK  252  A    between atoms: _625  and  _626
REMARK                            x       y       z     vdW  Elec       q    Type
REMARK                         _______ _______ _______ _____ _____    ______ ____
ROOT
ATOM      1  O   HOH     1      22.188  15.931   5.251  0.00  0.00    +0.000 OA
ENDROOT
TORSDOF 0
REMARK  Name = ../refined-set-2016/1w5y/1w5y_pocket.pdb
REMARK  252 active torsions:
REMARK  status: ('A' for Active; 'I' for Inactive)
REMARK    1  A    between atoms: _1  and  _3
REMARK    2  A    between atoms: _3  and  _4
REMARK    3  A    between atoms: _3  and  _6
REMARK    4  A    between atoms: _6  and  _7
REMARK    5  A    between atoms: _7  and  _8
REMARK    6  A    between atoms: _8  and  _9
REMARK    7  A    between atoms: _19  and  _20
REMARK    8  A    between atoms: _25  and  _27
REMARK    9  A    between atoms: _27  and  _28
REMARK   10  A    between atoms: _27  and  _30
REMARK   11  A    between atoms: _30  and  _31
REMARK   12  A    between atoms: _34  and  _36
REMARK   13  A    between atoms: _36  and  _37
REMARK   14  A    between atoms: _36  and  _39
REMARK   15  A    between atoms: _39  and  _40
REMARK   16  A    between atoms: _43  and  _45
REMARK   17  A    between atoms: _45  and  _46
REMARK   18  A    between atoms: _45  and  _48
REMARK   19  A    between atoms: _48  and  _49
REMARK   20  A    between atoms: _52  and  _54
REMARK   21  A    between atoms: _54  and  _55
REMARK   22  A    between atoms: _54  and  _57
REMARK   23  A    between atoms: _57  and  _58
REMARK   24  A    between atoms: _61  and  _63
REMARK   25  A    between atoms: _63  and  _64
REMARK   26  A    between atoms: _63  and  _66
REMARK   27  A    between atoms: _66  and  _67
REMARK   28  A    between atoms: _70  and  _72
REMARK   29  A    between atoms: _72  and  _73
REMARK   30  A    between atoms: _75  and  _77
REMARK   31  A    between atoms: _77  and  _78
REMARK   32  A    between atoms: _81  and  _83
REMARK   33  A    between atoms: _83  and  _84
REMARK   34  A    between atoms: _83  and  _86
REMARK   35  A    between atoms: _86  and  _87
REMARK   36  A    between atoms: _90  and  _92
REMARK   37  A    between atoms: _92  and  _93
REMARK   38  A    between atoms: _92  and  _95
REMARK   39  A    between atoms: _95  and  _96
REMARK   40  A    between atoms: _99  and  _101
REMARK   41  A    between atoms: _101  and  _102
REMARK   42  A    between atoms: _101  and  _104
REMARK   43  A    between atoms: _104  and  _105
REMARK   44  A    between atoms: _108  and  _110
REMARK   45  A    between atoms: _110  and  _111
REMARK   46  A    between atoms: _110  and  _113
REMARK   47  A    between atoms: _116  and  _118
REMARK   48  A    between atoms: _118  and  _119
REMARK   49  A    between atoms: _118  and  _121
REMARK   50  A    between atoms: _121  and  _122
REMARK   51  A    between atoms: _125  and  _127
REMARK   52  A    between atoms: _127  and  _128
REMARK   53  A    between atoms: _127  and  _130
REMARK   54  A    between atoms: _130  and  _131
REMARK   55  A    between atoms: _131  and  _132
REMARK   56  A    between atoms: _132  and  _133
REMARK   57  A    between atoms: _133  and  _134
REMARK   58  A    between atoms: _138  and  _140
REMARK   59  A    between atoms: _140  and  _141
REMARK   60  A    between atoms: _140  and  _143
REMARK   61  A    between atoms: _143  and  _144
REMARK   62  A    between atoms: _144  and  _145
REMARK   63  A    between atoms: _147  and  _149
REMARK   64  A    between atoms: _149  and  _150
REMARK   65  A    between atoms: _149  and  _152
REMARK   66  A    between atoms: _152  and  _153
REMARK   67  A    between atoms: _156  and  _158
REMARK   68  A    between atoms: _158  and  _159
REMARK   69  A    between atoms: _161  and  _163
REMARK   70  A    between atoms: _163  and  _164
REMARK   71  A    between atoms: _166  and  _168
REMARK   72  A    between atoms: _168  and  _169
REMARK   73  A    between atoms: _168  and  _171
REMARK   74  A    between atoms: _171  and  _172
REMARK   75  A    between atoms: _175  and  _177
REMARK   76  A    between atoms: _177  and  _178
REMARK   77  A    between atoms: _180  and  _182
REMARK   78  A    between atoms: _182  and  _183
REMARK   79  A    between atoms: _185  and  _187
REMARK   80  A    between atoms: _187  and  _188
REMARK   81  A    between atoms: _187  and  _190
REMARK   82  A    between atoms: _190  and  _191
REMARK   83  A    between atoms: _197  and  _199
REMARK   84  A    between atoms: _199  and  _200
REMARK   85  A    between atoms: _199  and  _202
REMARK   86  A    between atoms: _202  and  _203
REMARK   87  A    between atoms: _206  and  _208
REMARK   88  A    between atoms: _208  and  _209
REMARK   89  A    between atoms: _208  and  _211
REMARK   90  A    between atoms: _214  and  _216
REMARK   91  A    between atoms: _216  and  _217
REMARK   92  A    between atoms: _216  and  _219
REMARK   93  A    between atoms: _219  and  _220
REMARK   94  A    between atoms: _224  and  _225
REMARK   95  A    between atoms: _230  and  _232
REMARK   96  A    between atoms: _232  and  _233
REMARK   97  A    between atoms: _232  and  _235
REMARK   98  A    between atoms: _235  and  _236
REMARK   99  A    between atoms: _240  and  _241
REMARK  100  A    between atoms: _246  and  _248
REMARK  101  A    between atoms: _248  and  _249
REMARK  102  A    between atoms: _248  and  _251
REMARK  103  A    between atoms: _254  and  _256
REMARK  104  A    between atoms: _256  and  _257
REMARK  105  A    between atoms: _256  and  _259
REMARK  106  A    between atoms: _259  and  _260
REMARK  107  A    between atoms: _265  and  _267
REMARK  108  A    between atoms: _267  and  _268
REMARK  109  A    between atoms: _267  and  _270
REMARK  110  A    between atoms: _270  and  _271
REMARK  111  A    between atoms: _274  and  _276
REMARK  112  A    between atoms: _276  and  _277
REMARK  113  A    between atoms: _276  and  _279
REMARK  114  A    between atoms: _279  and  _280
REMARK  115  A    between atoms: _283  and  _285
REMARK  116  A    between atoms: _285  and  _286
REMARK  117  A    between atoms: _288  and  _290
REMARK  118  A    between atoms: _290  and  _291
REMARK  119  A    between atoms: _290  and  _293
REMARK  120  A    between atoms: _293  and  _294
REMARK  121  A    between atoms: _294  and  _295
REMARK  122  A    between atoms: _295  and  _296
REMARK  123  A    between atoms: _305  and  _307
REMARK  124  A    between atoms: _307  and  _308
REMARK  125  A    between atoms: _307  and  _310
REMARK  126  A    between atoms: _310  and  _311
REMARK  127  A    between atoms: _316  and  _318
REMARK  128  A    between atoms: _318  and  _319
REMARK  129  A    between atoms: _318  and  _321
REMARK  130  A    between atoms: _321  and  _322
REMARK  131  A    between atoms: _322  and  _323
REMARK  132  A    between atoms: _323  and  _324
REMARK  133  A    between atoms: _334  and  _335
REMARK  134  A    between atoms: _340  and  _342
REMARK  135  A    between atoms: _342  and  _343
REMARK  136  A    between atoms: _342  and  _345
REMARK  137  A    between atoms: _345  and  _346
REMARK  138  A    between atoms: _349  and  _351
REMARK  139  A    between atoms: _351  and  _352
REMARK  140  A    between atoms: _351  and  _354
REMARK  141  A    between atoms: _354  and  _355
REMARK  142  A    between atoms: _358  and  _360
REMARK  143  A    between atoms: _360  and  _361
REMARK  144  A    between atoms: _360  and  _363
REMARK  145  A    between atoms: _363  and  _364
REMARK  146  A    between atoms: _367  and  _369
REMARK  147  A    between atoms: _369  and  _370
REMARK  148  A    between atoms: _369  and  _372
REMARK  149  A    between atoms: _372  and  _373
REMARK  150  A    between atoms: _376  and  _378
REMARK  151  A    between atoms: _378  and  _379
REMARK  152  A    between atoms: _378  and  _381
REMARK  153  A    between atoms: _381  and  _382
REMARK  154  A    between atoms: _385  and  _387
REMARK  155  A    between atoms: _387  and  _388
REMARK  156  A    between atoms: _390  and  _392
REMARK  157  A    between atoms: _392  and  _393
REMARK  158  A    between atoms: _396  and  _398
REMARK  159  A    between atoms: _398  and  _399
REMARK  160  A    between atoms: _398  and  _401
REMARK  161  A    between atoms: _401  and  _402
REMARK  162  A    between atoms: _405  and  _407
REMARK  163  A    between atoms: _407  and  _408
REMARK  164  A    between atoms: _407  and  _410
REMARK  165  A    between atoms: _410  and  _411
REMARK  166  A    between atoms: _414  and  _416
REMARK  167  A    between atoms: _416  and  _417
REMARK  168  A    between atoms: _416  and  _419
REMARK  169  A    between atoms: _419  and  _420
REMARK  170  A    between atoms: _423  and  _425
REMARK  171  A    between atoms: _425  and  _426
REMARK  172  A    between atoms: _425  and  _428
REMARK  173  A    between atoms: _431  and  _433
REMARK  174  A    between atoms: _433  and  _434
REMARK  175  A    between atoms: _433  and  _436
REMARK  176  A    between atoms: _436  and  _437
REMARK  177  A    between atoms: _440  and  _442
REMARK  178  A    between atoms: _442  and  _443
REMARK  179  A    between atoms: _442  and  _445
REMARK  180  A    between atoms: _445  and  _446
REMARK  181  A    between atoms: _446  and  _447
REMARK  182  A    between atoms: _447  and  _448
REMARK  183  A    between atoms: _448  and  _449
REMARK  184  A    between atoms: _453  and  _455
REMARK  185  A    between atoms: _455  and  _456
REMARK  186  A    between atoms: _455  and  _458
REMARK  187  A    between atoms: _458  and  _459
REMARK  188  A    between atoms: _459  and  _460
REMARK  189  A    between atoms: _462  and  _464
REMARK  190  A    between atoms: _464  and  _465
REMARK  191  A    between atoms: _464  and  _467
REMARK  192  A    between atoms: _467  and  _468
REMARK  193  A    between atoms: _471  and  _473
REMARK  194  A    between atoms: _473  and  _474
REMARK  195  A    between atoms: _476  and  _478
REMARK  196  A    between atoms: _478  and  _479
REMARK  197  A    between atoms: _481  and  _483
REMARK  198  A    between atoms: _483  and  _484
REMARK  199  A    between atoms: _483  and  _486
REMARK  200  A    between atoms: _486  and  _487
REMARK  201  A    between atoms: _490  and  _492
REMARK  202  A    between atoms: _492  and  _493
REMARK  203  A    between atoms: _495  and  _497
REMARK  204  A    between atoms: _497  and  _498
REMARK  205  A    between atoms: _500  and  _502
REMARK  206  A    between atoms: _502  and  _503
REMARK  207  A    between atoms: _502  and  _505
REMARK  208  A    between atoms: _505  and  _506
REMARK  209  A    between atoms: _512  and  _514
REMARK  210  A    between atoms: _514  and  _515
REMARK  211  A    between atoms: _514  and  _517
REMARK  212  A    between atoms: _517  and  _518
REMARK  213  A    between atoms: _521  and  _523
REMARK  214  A    between atoms: _523  and  _524
REMARK  215  A    between atoms: _523  and  _526
REMARK  216  A    between atoms: _529  and  _531
REMARK  217  A    between atoms: _531  and  _532
REMARK  218  A    between atoms: _531  and  _534
REMARK  219  A    between atoms: _534  and  _535
REMARK  220  A    between atoms: _539  and  _540
REMARK  221  A    between atoms: _545  and  _547
REMARK  222  A    between atoms: _547  and  _548
REMARK  223  A    between atoms: _547  and  _550
REMARK  224  A    between atoms: _550  and  _551
REMARK  225  A    between atoms: _555  and  _556
REMARK  226  A    between atoms: _561  and  _563
REMARK  227  A    between atoms: _563  and  _564
REMARK  228  A    between atoms: _563  and  _566
REMARK  229  A    between atoms: _569  and  _571
REMARK  230  A    between atoms: _571  and  _572
REMARK  231  A    between atoms: _571  and  _574
REMARK  232  A    between atoms: _574  and  _575
REMARK  233  A    between atoms: _580  and  _582
REMARK  234  A    between atoms: _582  and  _583
REMARK  235  A    between atoms: _582  and  _585
REMARK  236  A    between atoms: _585  and  _586
REMARK  237  A    between atoms: _589  and  _591
REMARK  238  A    between atoms: _591  and  _592
REMARK  239  A    between atoms: _591  and  _594
REMARK  240  A    between atoms: _594  and  _595
REMARK  241  A    between atoms: _598  and  _600
REMARK  242  A    between atoms: _600  and  _601
REMARK  243  A    between atoms: _603  and  _605
REMARK  244  A    between atoms: _605  and  _606
REMARK  245  A    between atoms: _605  and  _608
REMARK  246  A    between atoms: _608  and  _609
REMARK  247  A    between atoms: _609  and  _610
REMARK  248  A    between atoms: _610  and  _611
REMARK  249  A    between atoms: _620  and  _622
REMARK  250  A    between atoms: _622  and  _623
REMARK  251  A    between atoms: _622  and  _625
REMARK  252  A    between atoms: _625  and  _626
REMARK                            x       y       z     vdW  Elec       q    Type
REMARK                         _______ _______ _______ _____ _____    ______ ____
ROOT
ATOM      1  O   HOH     1      23.970  15.579   1.983  0.00  0.00    +0.000 OA
ENDROOT
TORSDOF 0
REMARK  Name = ../refined-set-2016/1w5y/1w5y_pocket.pdb
REMARK  252 active torsions:
REMARK  status: ('A' for Active; 'I' for Inactive)
REMARK    1  A    between atoms: _1  and  _3
REMARK    2  A    between atoms: _3  and  _4
REMARK    3  A    between atoms: _3  and  _6
REMARK    4  A    between atoms: _6  and  _7
REMARK    5  A    between atoms: _7  and  _8
REMARK    6  A    between atoms: _8  and  _9
REMARK    7  A    between atoms: _19  and  _20
REMARK    8  A    between atoms: _25  and  _27
REMARK    9  A    between atoms: _27  and  _28
REMARK   10  A    between atoms: _27  and  _30
REMARK   11  A    between atoms: _30  and  _31
REMARK   12  A    between atoms: _34  and  _36
REMARK   13  A    between atoms: _36  and  _37
REMARK   14  A    between atoms: _36  and  _39
REMARK   15  A    between atoms: _39  and  _40
REMARK   16  A    between atoms: _43  and  _45
REMARK   17  A    between atoms: _45  and  _46
REMARK   18  A    between atoms: _45  and  _48
REMARK   19  A    between atoms: _48  and  _49
REMARK   20  A    between atoms: _52  and  _54
REMARK   21  A    between atoms: _54  and  _55
REMARK   22  A    between atoms: _54  and  _57
REMARK   23  A    between atoms: _57  and  _58
REMARK   24  A    between atoms: _61  and  _63
REMARK   25  A    between atoms: _63  and  _64
REMARK   26  A    between atoms: _63  and  _66
REMARK   27  A    between atoms: _66  and  _67
REMARK   28  A    between atoms: _70  and  _72
REMARK   29  A    between atoms: _72  and  _73
REMARK   30  A    between atoms: _75  and  _77
REMARK   31  A    between atoms: _77  and  _78
REMARK   32  A    between atoms: _81  and  _83
REMARK   33  A    between atoms: _83  and  _84
REMARK   34  A    between atoms: _83  and  _86
REMARK   35  A    between atoms: _86  and  _87
REMARK   36  A    between atoms: _90  and  _92
REMARK   37  A    between atoms: _92  and  _93
REMARK   38  A    between atoms: _92  and  _95
REMARK   39  A    between atoms: _95  and  _96
REMARK   40  A    between atoms: _99  and  _101
REMARK   41  A    between atoms: _101  and  _102
REMARK   42  A    between atoms: _101  and  _104
REMARK   43  A    between atoms: _104  and  _105
REMARK   44  A    between atoms: _108  and  _110
REMARK   45  A    between atoms: _110  and  _111
REMARK   46  A    between atoms: _110  and  _113
REMARK   47  A    between atoms: _116  and  _118
REMARK   48  A    between atoms: _118  and  _119
REMARK   49  A    between atoms: _118  and  _121
REMARK   50  A    between atoms: _121  and  _122
REMARK   51  A    between atoms: _125  and  _127
REMARK   52  A    between atoms: _127  and  _128
REMARK   53  A    between atoms: _127  and  _130
REMARK   54  A    between atoms: _130  and  _131
REMARK   55  A    between atoms: _131  and  _132
REMARK   56  A    between atoms: _132  and  _133
REMARK   57  A    between atoms: _133  and  _134
REMARK   58  A    between atoms: _138  and  _140
REMARK   59  A    between atoms: _140  and  _141
REMARK   60  A    between atoms: _140  and  _143
REMARK   61  A    between atoms: _143  and  _144
REMARK   62  A    between atoms: _144  and  _145
REMARK   63  A    between atoms: _147  and  _149
REMARK   64  A    between atoms: _149  and  _150
REMARK   65  A    between atoms: _149  and  _152
REMARK   66  A    between atoms: _152  and  _153
REMARK   67  A    between atoms: _156  and  _158
REMARK   68  A    between atoms: _158  and  _159
REMARK   69  A    between atoms: _161  and  _163
REMARK   70  A    between atoms: _163  and  _164
REMARK   71  A    between atoms: _166  and  _168
REMARK   72  A    between atoms: _168  and  _169
REMARK   73  A    between atoms: _168  and  _171
REMARK   74  A    between atoms: _171  and  _172
REMARK   75  A    between atoms: _175  and  _177
REMARK   76  A    between atoms: _177  and  _178
REMARK   77  A    between atoms: _180  and  _182
REMARK   78  A    between atoms: _182  and  _183
REMARK   79  A    between atoms: _185  and  _187
REMARK   80  A    between atoms: _187  and  _188
REMARK   81  A    between atoms: _187  and  _190
REMARK   82  A    between atoms: _190  and  _191
REMARK   83  A    between atoms: _197  and  _199
REMARK   84  A    between atoms: _199  and  _200
REMARK   85  A    between atoms: _199  and  _202
REMARK   86  A    between atoms: _202  and  _203
REMARK   87  A    between atoms: _206  and  _208
REMARK   88  A    between atoms: _208  and  _209
REMARK   89  A    between atoms: _208  and  _211
REMARK   90  A    between atoms: _214  and  _216
REMARK   91  A    between atoms: _216  and  _217
REMARK   92  A    between atoms: _216  and  _219
REMARK   93  A    between atoms: _219  and  _220
REMARK   94  A    between atoms: _224  and  _225
REMARK   95  A    between atoms: _230  and  _232
REMARK   96  A    between atoms: _232  and  _233
REMARK   97  A    between atoms: _232  and  _235
REMARK   98  A    between atoms: _235  and  _236
REMARK   99  A    between atoms: _240  and  _241
REMARK  100  A    between atoms: _246  and  _248
REMARK  101  A    between atoms: _248  and  _249
REMARK  102  A    between atoms: _248  and  _251
REMARK  103  A    between atoms: _254  and  _256
REMARK  104  A    between atoms: _256  and  _257
REMARK  105  A    between atoms: _256  and  _259
REMARK  106  A    between atoms: _259  and  _260
REMARK  107  A    between atoms: _265  and  _267
REMARK  108  A    between atoms: _267  and  _268
REMARK  109  A    between atoms: _267  and  _270
REMARK  110  A    between atoms: _270  and  _271
REMARK  111  A    between atoms: _274  and  _276
REMARK  112  A    between atoms: _276  and  _277
REMARK  113  A    between atoms: _276  and  _279
REMARK  114  A    between atoms: _279  and  _280
REMARK  115  A    between atoms: _283  and  _285
REMARK  116  A    between atoms: _285  and  _286
REMARK  117  A    between atoms: _288  and  _290
REMARK  118  A    between atoms: _290  and  _291
REMARK  119  A    between atoms: _290  and  _293
REMARK  120  A    between atoms: _293  and  _294
REMARK  121  A    between atoms: _294  and  _295
REMARK  122  A    between atoms: _295  and  _296
REMARK  123  A    between atoms: _305  and  _307
REMARK  124  A    between atoms: _307  and  _308
REMARK  125  A    between atoms: _307  and  _310
REMARK  126  A    between atoms: _310  and  _311
REMARK  127  A    between atoms: _316  and  _318
REMARK  128  A    between atoms: _318  and  _319
REMARK  129  A    between atoms: _318  and  _321
REMARK  130  A    between atoms: _321  and  _322
REMARK  131  A    between atoms: _322  and  _323
REMARK  132  A    between atoms: _323  and  _324
REMARK  133  A    between atoms: _334  and  _335
REMARK  134  A    between atoms: _340  and  _342
REMARK  135  A    between atoms: _342  and  _343
REMARK  136  A    between atoms: _342  and  _345
REMARK  137  A    between atoms: _345  and  _346
REMARK  138  A    between atoms: _349  and  _351
REMARK  139  A    between atoms: _351  and  _352
REMARK  140  A    between atoms: _351  and  _354
REMARK  141  A    between atoms: _354  and  _355
REMARK  142  A    between atoms: _358  and  _360
REMARK  143  A    between atoms: _360  and  _361
REMARK  144  A    between atoms: _360  and  _363
REMARK  145  A    between atoms: _363  and  _364
REMARK  146  A    between atoms: _367  and  _369
REMARK  147  A    between atoms: _369  and  _370
REMARK  148  A    between atoms: _369  and  _372
REMARK  149  A    between atoms: _372  and  _373
REMARK  150  A    between atoms: _376  and  _378
REMARK  151  A    between atoms: _378  and  _379
REMARK  152  A    between atoms: _378  and  _381
REMARK  153  A    between atoms: _381  and  _382
REMARK  154  A    between atoms: _385  and  _387
REMARK  155  A    between atoms: _387  and  _388
REMARK  156  A    between atoms: _390  and  _392
REMARK  157  A    between atoms: _392  and  _393
REMARK  158  A    between atoms: _396  and  _398
REMARK  159  A    between atoms: _398  and  _399
REMARK  160  A    between atoms: _398  and  _401
REMARK  161  A    between atoms: _401  and  _402
REMARK  162  A    between atoms: _405  and  _407
REMARK  163  A    between atoms: _407  and  _408
REMARK  164  A    between atoms: _407  and  _410
REMARK  165  A    between atoms: _410  and  _411
REMARK  166  A    between atoms: _414  and  _416
REMARK  167  A    between atoms: _416  and  _417
REMARK  168  A    between atoms: _416  and  _419
REMARK  169  A    between atoms: _419  and  _420
REMARK  170  A    between atoms: _423  and  _425
REMARK  171  A    between atoms: _425  and  _426
REMARK  172  A    between atoms: _425  and  _428
REMARK  173  A    between atoms: _431  and  _433
REMARK  174  A    between atoms: _433  and  _434
REMARK  175  A    between atoms: _433  and  _436
REMARK  176  A    between atoms: _436  and  _437
REMARK  177  A    between atoms: _440  and  _442
REMARK  178  A    between atoms: _442  and  _443
REMARK  179  A    between atoms: _442  and  _445
REMARK  180  A    between atoms: _445  and  _446
REMARK  181  A    between atoms: _446  and  _447
REMARK  182  A    between atoms: _447  and  _448
REMARK  183  A    between atoms: _448  and  _449
REMARK  184  A    between atoms: _453  and  _455
REMARK  185  A    between atoms: _455  and  _456
REMARK  186  A    between atoms: _455  and  _458
REMARK  187  A    between atoms: _458  and  _459
REMARK  188  A    between atoms: _459  and  _460
REMARK  189  A    between atoms: _462  and  _464
REMARK  190  A    between atoms: _464  and  _465
REMARK  191  A    between atoms: _464  and  _467
REMARK  192  A    between atoms: _467  and  _468
REMARK  193  A    between atoms: _471  and  _473
REMARK  194  A    between atoms: _473  and  _474
REMARK  195  A    between atoms: _476  and  _478
REMARK  196  A    between atoms: _478  and  _479
REMARK  197  A    between atoms: _481  and  _483
REMARK  198  A    between atoms: _483  and  _484
REMARK  199  A    between atoms: _483  and  _486
REMARK  200  A    between atoms: _486  and  _487
REMARK  201  A    between atoms: _490  and  _492
REMARK  202  A    between atoms: _492  and  _493
REMARK  203  A    between atoms: _495  and  _497
REMARK  204  A    between atoms: _497  and  _498
REMARK  205  A    between atoms: _500  and  _502
REMARK  206  A    between atoms: _502  and  _503
REMARK  207  A    between atoms: _502  and  _505
REMARK  208  A    between atoms: _505  and  _506
REMARK  209  A    between atoms: _512  and  _514
REMARK  210  A    between atoms: _514  and  _515
REMARK  211  A    between atoms: _514  and  _517
REMARK  212  A    between atoms: _517  and  _518
REMARK  213  A    between atoms: _521  and  _523
REMARK  214  A    between atoms: _523  and  _524
REMARK  215  A    between atoms: _523  and  _526
REMARK  216  A    between atoms: _529  and  _531
REMARK  217  A    between atoms: _531  and  _532
REMARK  218  A    between atoms: _531  and  _534
REMARK  219  A    between atoms: _534  and  _535
REMARK  220  A    between atoms: _539  and  _540
REMARK  221  A    between atoms: _545  and  _547
REMARK  222  A    between atoms: _547  and  _548
REMARK  223  A    between atoms: _547  and  _550
REMARK  224  A    between atoms: _550  and  _551
REMARK  225  A    between atoms: _555  and  _556
REMARK  226  A    between atoms: _561  and  _563
REMARK  227  A    between atoms: _563  and  _564
REMARK  228  A    between atoms: _563  and  _566
REMARK  229  A    between atoms: _569  and  _571
REMARK  230  A    between atoms: _571  and  _572
REMARK  231  A    between atoms: _571  and  _574
REMARK  232  A    between atoms: _574  and  _575
REMARK  233  A    between atoms: _580  and  _582
REMARK  234  A    between atoms: _582  and  _583
REMARK  235  A    between atoms: _582  and  _585
REMARK  236  A    between atoms: _585  and  _586
REMARK  237  A    between atoms: _589  and  _591
REMARK  238  A    between atoms: _591  and  _592
REMARK  239  A    between atoms: _591  and  _594
REMARK  240  A    between atoms: _594  and  _595
REMARK  241  A    between atoms: _598  and  _600
REMARK  242  A    between atoms: _600  and  _601
REMARK  243  A    between atoms: _603  and  _605
REMARK  244  A    between atoms: _605  and  _606
REMARK  245  A    between atoms: _605  and  _608
REMARK  246  A    between atoms: _608  and  _609
REMARK  247  A    between atoms: _609  and  _610
REMARK  248  A    between atoms: _610  and  _611
REMARK  249  A    between atoms: _620  and  _622
REMARK  250  A    between atoms: _622  and  _623
REMARK  251  A    between atoms: _622  and  _625
REMARK  252  A    between atoms: _625  and  _626
REMARK                            x       y       z     vdW  Elec       q    Type
REMARK                         _______ _______ _______ _____ _____    ______ ____
ROOT
ATOM      1  O   HOH     1      20.309  14.659   4.074  0.00  0.00    +0.000 OA
ENDROOT
TORSDOF 0
REMARK  Name = ../refined-set-2016/1w5y/1w5y_pocket.pdb
REMARK  252 active torsions:
REMARK  status: ('A' for Active; 'I' for Inactive)
REMARK    1  A    between atoms: _1  and  _3
REMARK    2  A    between atoms: _3  and  _4
REMARK    3  A    between atoms: _3  and  _6
REMARK    4  A    between atoms: _6  and  _7
REMARK    5  A    between atoms: _7  and  _8
REMARK    6  A    between atoms: _8  and  _9
REMARK    7  A    between atoms: _19  and  _20
REMARK    8  A    between atoms: _25  and  _27
REMARK    9  A    between atoms: _27  and  _28
REMARK   10  A    between atoms: _27  and  _30
REMARK   11  A    between atoms: _30  and  _31
REMARK   12  A    between atoms: _34  and  _36
REMARK   13  A    between atoms: _36  and  _37
REMARK   14  A    between atoms: _36  and  _39
REMARK   15  A    between atoms: _39  and  _40
REMARK   16  A    between atoms: _43  and  _45
REMARK   17  A    between atoms: _45  and  _46
REMARK   18  A    between atoms: _45  and  _48
REMARK   19  A    between atoms: _48  and  _49
REMARK   20  A    between atoms: _52  and  _54
REMARK   21  A    between atoms: _54  and  _55
REMARK   22  A    between atoms: _54  and  _57
REMARK   23  A    between atoms: _57  and  _58
REMARK   24  A    between atoms: _61  and  _63
REMARK   25  A    between atoms: _63  and  _64
REMARK   26  A    between atoms: _63  and  _66
REMARK   27  A    between atoms: _66  and  _67
REMARK   28  A    between atoms: _70  and  _72
REMARK   29  A    between atoms: _72  and  _73
REMARK   30  A    between atoms: _75  and  _77
REMARK   31  A    between atoms: _77  and  _78
REMARK   32  A    between atoms: _81  and  _83
REMARK   33  A    between atoms: _83  and  _84
REMARK   34  A    between atoms: _83  and  _86
REMARK   35  A    between atoms: _86  and  _87
REMARK   36  A    between atoms: _90  and  _92
REMARK   37  A    between atoms: _92  and  _93
REMARK   38  A    between atoms: _92  and  _95
REMARK   39  A    between atoms: _95  and  _96
REMARK   40  A    between atoms: _99  and  _101
REMARK   41  A    between atoms: _101  and  _102
REMARK   42  A    between atoms: _101  and  _104
REMARK   43  A    between atoms: _104  and  _105
REMARK   44  A    between atoms: _108  and  _110
REMARK   45  A    between atoms: _110  and  _111
REMARK   46  A    between atoms: _110  and  _113
REMARK   47  A    between atoms: _116  and  _118
REMARK   48  A    between atoms: _118  and  _119
REMARK   49  A    between atoms: _118  and  _121
REMARK   50  A    between atoms: _121  and  _122
REMARK   51  A    between atoms: _125  and  _127
REMARK   52  A    between atoms: _127  and  _128
REMARK   53  A    between atoms: _127  and  _130
REMARK   54  A    between atoms: _130  and  _131
REMARK   55  A    between atoms: _131  and  _132
REMARK   56  A    between atoms: _132  and  _133
REMARK   57  A    between atoms: _133  and  _134
REMARK   58  A    between atoms: _138  and  _140
REMARK   59  A    between atoms: _140  and  _141
REMARK   60  A    between atoms: _140  and  _143
REMARK   61  A    between atoms: _143  and  _144
REMARK   62  A    between atoms: _144  and  _145
REMARK   63  A    between atoms: _147  and  _149
REMARK   64  A    between atoms: _149  and  _150
REMARK   65  A    between atoms: _149  and  _152
REMARK   66  A    between atoms: _152  and  _153
REMARK   67  A    between atoms: _156  and  _158
REMARK   68  A    between atoms: _158  and  _159
REMARK   69  A    between atoms: _161  and  _163
REMARK   70  A    between atoms: _163  and  _164
REMARK   71  A    between atoms: _166  and  _168
REMARK   72  A    between atoms: _168  and  _169
REMARK   73  A    between atoms: _168  and  _171
REMARK   74  A    between atoms: _171  and  _172
REMARK   75  A    between atoms: _175  and  _177
REMARK   76  A    between atoms: _177  and  _178
REMARK   77  A    between atoms: _180  and  _182
REMARK   78  A    between atoms: _182  and  _183
REMARK   79  A    between atoms: _185  and  _187
REMARK   80  A    between atoms: _187  and  _188
REMARK   81  A    between atoms: _187  and  _190
REMARK   82  A    between atoms: _190  and  _191
REMARK   83  A    between atoms: _197  and  _199
REMARK   84  A    between atoms: _199  and  _200
REMARK   85  A    between atoms: _199  and  _202
REMARK   86  A    between atoms: _202  and  _203
REMARK   87  A    between atoms: _206  and  _208
REMARK   88  A    between atoms: _208  and  _209
REMARK   89  A    between atoms: _208  and  _211
REMARK   90  A    between atoms: _214  and  _216
REMARK   91  A    between atoms: _216  and  _217
REMARK   92  A    between atoms: _216  and  _219
REMARK   93  A    between atoms: _219  and  _220
REMARK   94  A    between atoms: _224  and  _225
REMARK   95  A    between atoms: _230  and  _232
REMARK   96  A    between atoms: _232  and  _233
REMARK   97  A    between atoms: _232  and  _235
REMARK   98  A    between atoms: _235  and  _236
REMARK   99  A    between atoms: _240  and  _241
REMARK  100  A    between atoms: _246  and  _248
REMARK  101  A    between atoms: _248  and  _249
REMARK  102  A    between atoms: _248  and  _251
REMARK  103  A    between atoms: _254  and  _256
REMARK  104  A    between atoms: _256  and  _257
REMARK  105  A    between atoms: _256  and  _259
REMARK  106  A    between atoms: _259  and  _260
REMARK  107  A    between atoms: _265  and  _267
REMARK  108  A    between atoms: _267  and  _268
REMARK  109  A    between atoms: _267  and  _270
REMARK  110  A    between atoms: _270  and  _271
REMARK  111  A    between atoms: _274  and  _276
REMARK  112  A    between atoms: _276  and  _277
REMARK  113  A    between atoms: _276  and  _279
REMARK  114  A    between atoms: _279  and  _280
REMARK  115  A    between atoms: _283  and  _285
REMARK  116  A    between atoms: _285  and  _286
REMARK  117  A    between atoms: _288  and  _290
REMARK  118  A    between atoms: _290  and  _291
REMARK  119  A    between atoms: _290  and  _293
REMARK  120  A    between atoms: _293  and  _294
REMARK  121  A    between atoms: _294  and  _295
REMARK  122  A    between atoms: _295  and  _296
REMARK  123  A    between atoms: _305  and  _307
REMARK  124  A    between atoms: _307  and  _308
REMARK  125  A    between atoms: _307  and  _310
REMARK  126  A    between atoms: _310  and  _311
REMARK  127  A    between atoms: _316  and  _318
REMARK  128  A    between atoms: _318  and  _319
REMARK  129  A    between atoms: _318  and  _321
REMARK  130  A    between atoms: _321  and  _322
REMARK  131  A    between atoms: _322  and  _323
REMARK  132  A    between atoms: _323  and  _324
REMARK  133  A    between atoms: _334  and  _335
REMARK  134  A    between atoms: _340  and  _342
REMARK  135  A    between atoms: _342  and  _343
REMARK  136  A    between atoms: _342  and  _345
REMARK  137  A    between atoms: _345  and  _346
REMARK  138  A    between atoms: _349  and  _351
REMARK  139  A    between atoms: _351  and  _352
REMARK  140  A    between atoms: _351  and  _354
REMARK  141  A    between atoms: _354  and  _355
REMARK  142  A    between atoms: _358  and  _360
REMARK  143  A    between atoms: _360  and  _361
REMARK  144  A    between atoms: _360  and  _363
REMARK  145  A    between atoms: _363  and  _364
REMARK  146  A    between atoms: _367  and  _369
REMARK  147  A    between atoms: _369  and  _370
REMARK  148  A    between atoms: _369  and  _372
REMARK  149  A    between atoms: _372  and  _373
REMARK  150  A    between atoms: _376  and  _378
REMARK  151  A    between atoms: _378  and  _379
REMARK  152  A    between atoms: _378  and  _381
REMARK  153  A    between atoms: _381  and  _382
REMARK  154  A    between atoms: _385  and  _387
REMARK  155  A    between atoms: _387  and  _388
REMARK  156  A    between atoms: _390  and  _392
REMARK  157  A    between atoms: _392  and  _393
REMARK  158  A    between atoms: _396  and  _398
REMARK  159  A    between atoms: _398  and  _399
REMARK  160  A    between atoms: _398  and  _401
REMARK  161  A    between atoms: _401  and  _402
REMARK  162  A    between atoms: _405  and  _407
REMARK  163  A    between atoms: _407  and  _408
REMARK  164  A    between atoms: _407  and  _410
REMARK  165  A    between atoms: _410  and  _411
REMARK  166  A    between atoms: _414  and  _416
REMARK  167  A    between atoms: _416  and  _417
REMARK  168  A    between atoms: _416  and  _419
REMARK  169  A    between atoms: _419  and  _420
REMARK  170  A    between atoms: _423  and  _425
REMARK  171  A    between atoms: _425  and  _426
REMARK  172  A    between atoms: _425  and  _428
REMARK  173  A    between atoms: _431  and  _433
REMARK  174  A    between atoms: _433  and  _434
REMARK  175  A    between atoms: _433  and  _436
REMARK  176  A    between atoms: _436  and  _437
REMARK  177  A    between atoms: _440  and  _442
REMARK  178  A    between atoms: _442  and  _443
REMARK  179  A    between atoms: _442  and  _445
REMARK  180  A    between atoms: _445  and  _446
REMARK  181  A    between atoms: _446  and  _447
REMARK  182  A    between atoms: _447  and  _448
REMARK  183  A    between atoms: _448  and  _449
REMARK  184  A    between atoms: _453  and  _455
REMARK  185  A    between atoms: _455  and  _456
REMARK  186  A    between atoms: _455  and  _458
REMARK  187  A    between atoms: _458  and  _459
REMARK  188  A    between atoms: _459  and  _460
REMARK  189  A    between atoms: _462  and  _464
REMARK  190  A    between atoms: _464  and  _465
REMARK  191  A    between atoms: _464  and  _467
REMARK  192  A    between atoms: _467  and  _468
REMARK  193  A    between atoms: _471  and  _473
REMARK  194  A    between atoms: _473  and  _474
REMARK  195  A    between atoms: _476  and  _478
REMARK  196  A    between atoms: _478  and  _479
REMARK  197  A    between atoms: _481  and  _483
REMARK  198  A    between atoms: _483  and  _484
REMARK  199  A    between atoms: _483  and  _486
REMARK  200  A    between atoms: _486  and  _487
REMARK  201  A    between atoms: _490  and  _492
REMARK  202  A    between atoms: _492  and  _493
REMARK  203  A    between atoms: _495  and  _497
REMARK  204  A    between atoms: _497  and  _498
REMARK  205  A    between atoms: _500  and  _502
REMARK  206  A    between atoms: _502  and  _503
REMARK  207  A    between atoms: _502  and  _505
REMARK  208  A    between atoms: _505  and  _506
REMARK  209  A    between atoms: _512  and  _514
REMARK  210  A    between atoms: _514  and  _515
REMARK  211  A    between atoms: _514  and  _517
REMARK  212  A    between atoms: _517  and  _518
REMARK  213  A    between atoms: _521  and  _523
REMARK  214  A    between atoms: _523  and  _524
REMARK  215  A    between atoms: _523  and  _526
REMARK  216  A    between atoms: _529  and  _531
REMARK  217  A    between atoms: _531  and  _532
REMARK  218  A    between atoms: _531  and  _534
REMARK  219  A    between atoms: _534  and  _535
REMARK  220  A    between atoms: _539  and  _540
REMARK  221  A    between atoms: _545  and  _547
REMARK  222  A    between atoms: _547  and  _548
REMARK  223  A    between atoms: _547  and  _550
REMARK  224  A    between atoms: _550  and  _551
REMARK  225  A    between atoms: _555  and  _556
REMARK  226  A    between atoms: _561  and  _563
REMARK  227  A    between atoms: _563  and  _564
REMARK  228  A    between atoms: _563  and  _566
REMARK  229  A    between atoms: _569  and  _571
REMARK  230  A    between atoms: _571  and  _572
REMARK  231  A    between atoms: _571  and  _574
REMARK  232  A    between atoms: _574  and  _575
REMARK  233  A    between atoms: _580  and  _582
REMARK  234  A    between atoms: _582  and  _583
REMARK  235  A    between atoms: _582  and  _585
REMARK  236  A    between atoms: _585  and  _586
REMARK  237  A    between atoms: _589  and  _591
REMARK  238  A    between atoms: _591  and  _592
REMARK  239  A    between atoms: _591  and  _594
REMARK  240  A    between atoms: _594  and  _595
REMARK  241  A    between atoms: _598  and  _600
REMARK  242  A    between atoms: _600  and  _601
REMARK  243  A    between atoms: _603  and  _605
REMARK  244  A    between atoms: _605  and  _606
REMARK  245  A    between atoms: _605  and  _608
REMARK  246  A    between atoms: _608  and  _609
REMARK  247  A    between atoms: _609  and  _610
REMARK  248  A    between atoms: _610  and  _611
REMARK  249  A    between atoms: _620  and  _622
REMARK  250  A    between atoms: _622  and  _623
REMARK  251  A    between atoms: _622  and  _625
REMARK  252  A    between atoms: _625  and  _626
REMARK                            x       y       z     vdW  Elec       q    Type
REMARK                         _______ _______ _______ _____ _____    ______ ____
ROOT
ATOM      1  O   HOH     1      22.611  15.186  -2.299  0.00  0.00    +0.000 OA
ENDROOT
TORSDOF 0
REMARK  Name = ../refined-set-2016/1w5y/1w5y_pocket.pdb
REMARK  252 active torsions:
REMARK  status: ('A' for Active; 'I' for Inactive)
REMARK    1  A    between atoms: _1  and  _3
REMARK    2  A    between atoms: _3  and  _4
REMARK    3  A    between atoms: _3  and  _6
REMARK    4  A    between atoms: _6  and  _7
REMARK    5  A    between atoms: _7  and  _8
REMARK    6  A    between atoms: _8  and  _9
REMARK    7  A    between atoms: _19  and  _20
REMARK    8  A    between atoms: _25  and  _27
REMARK    9  A    between atoms: _27  and  _28
REMARK   10  A    between atoms: _27  and  _30
REMARK   11  A    between atoms: _30  and  _31
REMARK   12  A    between atoms: _34  and  _36
REMARK   13  A    between atoms: _36  and  _37
REMARK   14  A    between atoms: _36  and  _39
REMARK   15  A    between atoms: _39  and  _40
REMARK   16  A    between atoms: _43  and  _45
REMARK   17  A    between atoms: _45  and  _46
REMARK   18  A    between atoms: _45  and  _48
REMARK   19  A    between atoms: _48  and  _49
REMARK   20  A    between atoms: _52  and  _54
REMARK   21  A    between atoms: _54  and  _55
REMARK   22  A    between atoms: _54  and  _57
REMARK   23  A    between atoms: _57  and  _58
REMARK   24  A    between atoms: _61  and  _63
REMARK   25  A    between atoms: _63  and  _64
REMARK   26  A    between atoms: _63  and  _66
REMARK   27  A    between atoms: _66  and  _67
REMARK   28  A    between atoms: _70  and  _72
REMARK   29  A    between atoms: _72  and  _73
REMARK   30  A    between atoms: _75  and  _77
REMARK   31  A    between atoms: _77  and  _78
REMARK   32  A    between atoms: _81  and  _83
REMARK   33  A    between atoms: _83  and  _84
REMARK   34  A    between atoms: _83  and  _86
REMARK   35  A    between atoms: _86  and  _87
REMARK   36  A    between atoms: _90  and  _92
REMARK   37  A    between atoms: _92  and  _93
REMARK   38  A    between atoms: _92  and  _95
REMARK   39  A    between atoms: _95  and  _96
REMARK   40  A    between atoms: _99  and  _101
REMARK   41  A    between atoms: _101  and  _102
REMARK   42  A    between atoms: _101  and  _104
REMARK   43  A    between atoms: _104  and  _105
REMARK   44  A    between atoms: _108  and  _110
REMARK   45  A    between atoms: _110  and  _111
REMARK   46  A    between atoms: _110  and  _113
REMARK   47  A    between atoms: _116  and  _118
REMARK   48  A    between atoms: _118  and  _119
REMARK   49  A    between atoms: _118  and  _121
REMARK   50  A    between atoms: _121  and  _122
REMARK   51  A    between atoms: _125  and  _127
REMARK   52  A    between atoms: _127  and  _128
REMARK   53  A    between atoms: _127  and  _130
REMARK   54  A    between atoms: _130  and  _131
REMARK   55  A    between atoms: _131  and  _132
REMARK   56  A    between atoms: _132  and  _133
REMARK   57  A    between atoms: _133  and  _134
REMARK   58  A    between atoms: _138  and  _140
REMARK   59  A    between atoms: _140  and  _141
REMARK   60  A    between atoms: _140  and  _143
REMARK   61  A    between atoms: _143  and  _144
REMARK   62  A    between atoms: _144  and  _145
REMARK   63  A    between atoms: _147  and  _149
REMARK   64  A    between atoms: _149  and  _150
REMARK   65  A    between atoms: _149  and  _152
REMARK   66  A    between atoms: _152  and  _153
REMARK   67  A    between atoms: _156  and  _158
REMARK   68  A    between atoms: _158  and  _159
REMARK   69  A    between atoms: _161  and  _163
REMARK   70  A    between atoms: _163  and  _164
REMARK   71  A    between atoms: _166  and  _168
REMARK   72  A    between atoms: _168  and  _169
REMARK   73  A    between atoms: _168  and  _171
REMARK   74  A    between atoms: _171  and  _172
REMARK   75  A    between atoms: _175  and  _177
REMARK   76  A    between atoms: _177  and  _178
REMARK   77  A    between atoms: _180  and  _182
REMARK   78  A    between atoms: _182  and  _183
REMARK   79  A    between atoms: _185  and  _187
REMARK   80  A    between atoms: _187  and  _188
REMARK   81  A    between atoms: _187  and  _190
REMARK   82  A    between atoms: _190  and  _191
REMARK   83  A    between atoms: _197  and  _199
REMARK   84  A    between atoms: _199  and  _200
REMARK   85  A    between atoms: _199  and  _202
REMARK   86  A    between atoms: _202  and  _203
REMARK   87  A    between atoms: _206  and  _208
REMARK   88  A    between atoms: _208  and  _209
REMARK   89  A    between atoms: _208  and  _211
REMARK   90  A    between atoms: _214  and  _216
REMARK   91  A    between atoms: _216  and  _217
REMARK   92  A    between atoms: _216  and  _219
REMARK   93  A    between atoms: _219  and  _220
REMARK   94  A    between atoms: _224  and  _225
REMARK   95  A    between atoms: _230  and  _232
REMARK   96  A    between atoms: _232  and  _233
REMARK   97  A    between atoms: _232  and  _235
REMARK   98  A    between atoms: _235  and  _236
REMARK   99  A    between atoms: _240  and  _241
REMARK  100  A    between atoms: _246  and  _248
REMARK  101  A    between atoms: _248  and  _249
REMARK  102  A    between atoms: _248  and  _251
REMARK  103  A    between atoms: _254  and  _256
REMARK  104  A    between atoms: _256  and  _257
REMARK  105  A    between atoms: _256  and  _259
REMARK  106  A    between atoms: _259  and  _260
REMARK  107  A    between atoms: _265  and  _267
REMARK  108  A    between atoms: _267  and  _268
REMARK  109  A    between atoms: _267  and  _270
REMARK  110  A    between atoms: _270  and  _271
REMARK  111  A    between atoms: _274  and  _276
REMARK  112  A    between atoms: _276  and  _277
REMARK  113  A    between atoms: _276  and  _279
REMARK  114  A    between atoms: _279  and  _280
REMARK  115  A    between atoms: _283  and  _285
REMARK  116  A    between atoms: _285  and  _286
REMARK  117  A    between atoms: _288  and  _290
REMARK  118  A    between atoms: _290  and  _291
REMARK  119  A    between atoms: _290  and  _293
REMARK  120  A    between atoms: _293  and  _294
REMARK  121  A    between atoms: _294  and  _295
REMARK  122  A    between atoms: _295  and  _296
REMARK  123  A    between atoms: _305  and  _307
REMARK  124  A    between atoms: _307  and  _308
REMARK  125  A    between atoms: _307  and  _310
REMARK  126  A    between atoms: _310  and  _311
REMARK  127  A    between atoms: _316  and  _318
REMARK  128  A    between atoms: _318  and  _319
REMARK  129  A    between atoms: _318  and  _321
REMARK  130  A    between atoms: _321  and  _322
REMARK  131  A    between atoms: _322  and  _323
REMARK  132  A    between atoms: _323  and  _324
REMARK  133  A    between atoms: _334  and  _335
REMARK  134  A    between atoms: _340  and  _342
REMARK  135  A    between atoms: _342  and  _343
REMARK  136  A    between atoms: _342  and  _345
REMARK  137  A    between atoms: _345  and  _346
REMARK  138  A    between atoms: _349  and  _351
REMARK  139  A    between atoms: _351  and  _352
REMARK  140  A    between atoms: _351  and  _354
REMARK  141  A    between atoms: _354  and  _355
REMARK  142  A    between atoms: _358  and  _360
REMARK  143  A    between atoms: _360  and  _361
REMARK  144  A    between atoms: _360  and  _363
REMARK  145  A    between atoms: _363  and  _364
REMARK  146  A    between atoms: _367  and  _369
REMARK  147  A    between atoms: _369  and  _370
REMARK  148  A    between atoms: _369  and  _372
REMARK  149  A    between atoms: _372  and  _373
REMARK  150  A    between atoms: _376  and  _378
REMARK  151  A    between atoms: _378  and  _379
REMARK  152  A    between atoms: _378  and  _381
REMARK  153  A    between atoms: _381  and  _382
REMARK  154  A    between atoms: _385  and  _387
REMARK  155  A    between atoms: _387  and  _388
REMARK  156  A    between atoms: _390  and  _392
REMARK  157  A    between atoms: _392  and  _393
REMARK  158  A    between atoms: _396  and  _398
REMARK  159  A    between atoms: _398  and  _399
REMARK  160  A    between atoms: _398  and  _401
REMARK  161  A    between atoms: _401  and  _402
REMARK  162  A    between atoms: _405  and  _407
REMARK  163  A    between atoms: _407  and  _408
REMARK  164  A    between atoms: _407  and  _410
REMARK  165  A    between atoms: _410  and  _411
REMARK  166  A    between atoms: _414  and  _416
REMARK  167  A    between atoms: _416  and  _417
REMARK  168  A    between atoms: _416  and  _419
REMARK  169  A    between atoms: _419  and  _420
REMARK  170  A    between atoms: _423  and  _425
REMARK  171  A    between atoms: _425  and  _426
REMARK  172  A    between atoms: _425  and  _428
REMARK  173  A    between atoms: _431  and  _433
REMARK  174  A    between atoms: _433  and  _434
REMARK  175  A    between atoms: _433  and  _436
REMARK  176  A    between atoms: _436  and  _437
REMARK  177  A    between atoms: _440  and  _442
REMARK  178  A    between atoms: _442  and  _443
REMARK  179  A    between atoms: _442  and  _445
REMARK  180  A    between atoms: _445  and  _446
REMARK  181  A    between atoms: _446  and  _447
REMARK  182  A    between atoms: _447  and  _448
REMARK  183  A    between atoms: _448  and  _449
REMARK  184  A    between atoms: _453  and  _455
REMARK  185  A    between atoms: _455  and  _456
REMARK  186  A    between atoms: _455  and  _458
REMARK  187  A    between atoms: _458  and  _459
REMARK  188  A    between atoms: _459  and  _460
REMARK  189  A    between atoms: _462  and  _464
REMARK  190  A    between atoms: _464  and  _465
REMARK  191  A    between atoms: _464  and  _467
REMARK  192  A    between atoms: _467  and  _468
REMARK  193  A    between atoms: _471  and  _473
REMARK  194  A    between atoms: _473  and  _474
REMARK  195  A    between atoms: _476  and  _478
REMARK  196  A    between atoms: _478  and  _479
REMARK  197  A    between atoms: _481  and  _483
REMARK  198  A    between atoms: _483  and  _484
REMARK  199  A    between atoms: _483  and  _486
REMARK  200  A    between atoms: _486  and  _487
REMARK  201  A    between atoms: _490  and  _492
REMARK  202  A    between atoms: _492  and  _493
REMARK  203  A    between atoms: _495  and  _497
REMARK  204  A    between atoms: _497  and  _498
REMARK  205  A    between atoms: _500  and  _502
REMARK  206  A    between atoms: _502  and  _503
REMARK  207  A    between atoms: _502  and  _505
REMARK  208  A    between atoms: _505  and  _506
REMARK  209  A    between atoms: _512  and  _514
REMARK  210  A    between atoms: _514  and  _515
REMARK  211  A    between atoms: _514  and  _517
REMARK  212  A    between atoms: _517  and  _518
REMARK  213  A    between atoms: _521  and  _523
REMARK  214  A    between atoms: _523  and  _524
REMARK  215  A    between atoms: _523  and  _526
REMARK  216  A    between atoms: _529  and  _531
REMARK  217  A    between atoms: _531  and  _532
REMARK  218  A    between atoms: _531  and  _534
REMARK  219  A    between atoms: _534  and  _535
REMARK  220  A    between atoms: _539  and  _540
REMARK  221  A    between atoms: _545  and  _547
REMARK  222  A    between atoms: _547  and  _548
REMARK  223  A    between atoms: _547  and  _550
REMARK  224  A    between atoms: _550  and  _551
REMARK  225  A    between atoms: _555  and  _556
REMARK  226  A    between atoms: _561  and  _563
REMARK  227  A    between atoms: _563  and  _564
REMARK  228  A    between atoms: _563  and  _566
REMARK  229  A    between atoms: _569  and  _571
REMARK  230  A    between atoms: _571  and  _572
REMARK  231  A    between atoms: _571  and  _574
REMARK  232  A    between atoms: _574  and  _575
REMARK  233  A    between atoms: _580  and  _582
REMARK  234  A    between atoms: _582  and  _583
REMARK  235  A    between atoms: _582  and  _585
REMARK  236  A    between atoms: _585  and  _586
REMARK  237  A    between atoms: _589  and  _591
REMARK  238  A    between atoms: _591  and  _592
REMARK  239  A    between atoms: _591  and  _594
REMARK  240  A    between atoms: _594  and  _595
REMARK  241  A    between atoms: _598  and  _600
REMARK  242  A    between atoms: _600  and  _601
REMARK  243  A    between atoms: _603  and  _605
REMARK  244  A    between atoms: _605  and  _606
REMARK  245  A    between atoms: _605  and  _608
REMARK  246  A    between atoms: _608  and  _609
REMARK  247  A    between atoms: _609  and  _610
REMARK  248  A    between atoms: _610  and  _611
REMARK  249  A    between atoms: _620  and  _622
REMARK  250  A    between atoms: _622  and  _623
REMARK  251  A    between atoms: _622  and  _625
REMARK  252  A    between atoms: _625  and  _626
REMARK                            x       y       z     vdW  Elec       q    Type
REMARK                         _______ _______ _______ _____ _____    ______ ____
ROOT
ATOM      1  O   HOH     1      18.158  16.464   8.718  0.00  0.00    +0.000 OA
ENDROOT
TORSDOF 0
REMARK  Name = ../refined-set-2016/1w5y/1w5y_pocket.pdb
REMARK  252 active torsions:
REMARK  status: ('A' for Active; 'I' for Inactive)
REMARK    1  A    between atoms: _1  and  _3
REMARK    2  A    between atoms: _3  and  _4
REMARK    3  A    between atoms: _3  and  _6
REMARK    4  A    between atoms: _6  and  _7
REMARK    5  A    between atoms: _7  and  _8
REMARK    6  A    between atoms: _8  and  _9
REMARK    7  A    between atoms: _19  and  _20
REMARK    8  A    between atoms: _25  and  _27
REMARK    9  A    between atoms: _27  and  _28
REMARK   10  A    between atoms: _27  and  _30
REMARK   11  A    between atoms: _30  and  _31
REMARK   12  A    between atoms: _34  and  _36
REMARK   13  A    between atoms: _36  and  _37
REMARK   14  A    between atoms: _36  and  _39
REMARK   15  A    between atoms: _39  and  _40
REMARK   16  A    between atoms: _43  and  _45
REMARK   17  A    between atoms: _45  and  _46
REMARK   18  A    between atoms: _45  and  _48
REMARK   19  A    between atoms: _48  and  _49
REMARK   20  A    between atoms: _52  and  _54
REMARK   21  A    between atoms: _54  and  _55
REMARK   22  A    between atoms: _54  and  _57
REMARK   23  A    between atoms: _57  and  _58
REMARK   24  A    between atoms: _61  and  _63
REMARK   25  A    between atoms: _63  and  _64
REMARK   26  A    between atoms: _63  and  _66
REMARK   27  A    between atoms: _66  and  _67
REMARK   28  A    between atoms: _70  and  _72
REMARK   29  A    between atoms: _72  and  _73
REMARK   30  A    between atoms: _75  and  _77
REMARK   31  A    between atoms: _77  and  _78
REMARK   32  A    between atoms: _81  and  _83
REMARK   33  A    between atoms: _83  and  _84
REMARK   34  A    between atoms: _83  and  _86
REMARK   35  A    between atoms: _86  and  _87
REMARK   36  A    between atoms: _90  and  _92
REMARK   37  A    between atoms: _92  and  _93
REMARK   38  A    between atoms: _92  and  _95
REMARK   39  A    between atoms: _95  and  _96
REMARK   40  A    between atoms: _99  and  _101
REMARK   41  A    between atoms: _101  and  _102
REMARK   42  A    between atoms: _101  and  _104
REMARK   43  A    between atoms: _104  and  _105
REMARK   44  A    between atoms: _108  and  _110
REMARK   45  A    between atoms: _110  and  _111
REMARK   46  A    between atoms: _110  and  _113
REMARK   47  A    between atoms: _116  and  _118
REMARK   48  A    between atoms: _118  and  _119
REMARK   49  A    between atoms: _118  and  _121
REMARK   50  A    between atoms: _121  and  _122
REMARK   51  A    between atoms: _125  and  _127
REMARK   52  A    between atoms: _127  and  _128
REMARK   53  A    between atoms: _127  and  _130
REMARK   54  A    between atoms: _130  and  _131
REMARK   55  A    between atoms: _131  and  _132
REMARK   56  A    between atoms: _132  and  _133
REMARK   57  A    between atoms: _133  and  _134
REMARK   58  A    between atoms: _138  and  _140
REMARK   59  A    between atoms: _140  and  _141
REMARK   60  A    between atoms: _140  and  _143
REMARK   61  A    between atoms: _143  and  _144
REMARK   62  A    between atoms: _144  and  _145
REMARK   63  A    between atoms: _147  and  _149
REMARK   64  A    between atoms: _149  and  _150
REMARK   65  A    between atoms: _149  and  _152
REMARK   66  A    between atoms: _152  and  _153
REMARK   67  A    between atoms: _156  and  _158
REMARK   68  A    between atoms: _158  and  _159
REMARK   69  A    between atoms: _161  and  _163
REMARK   70  A    between atoms: _163  and  _164
REMARK   71  A    between atoms: _166  and  _168
REMARK   72  A    between atoms: _168  and  _169
REMARK   73  A    between atoms: _168  and  _171
REMARK   74  A    between atoms: _171  and  _172
REMARK   75  A    between atoms: _175  and  _177
REMARK   76  A    between atoms: _177  and  _178
REMARK   77  A    between atoms: _180  and  _182
REMARK   78  A    between atoms: _182  and  _183
REMARK   79  A    between atoms: _185  and  _187
REMARK   80  A    between atoms: _187  and  _188
REMARK   81  A    between atoms: _187  and  _190
REMARK   82  A    between atoms: _190  and  _191
REMARK   83  A    between atoms: _197  and  _199
REMARK   84  A    between atoms: _199  and  _200
REMARK   85  A    between atoms: _199  and  _202
REMARK   86  A    between atoms: _202  and  _203
REMARK   87  A    between atoms: _206  and  _208
REMARK   88  A    between atoms: _208  and  _209
REMARK   89  A    between atoms: _208  and  _211
REMARK   90  A    between atoms: _214  and  _216
REMARK   91  A    between atoms: _216  and  _217
REMARK   92  A    between atoms: _216  and  _219
REMARK   93  A    between atoms: _219  and  _220
REMARK   94  A    between atoms: _224  and  _225
REMARK   95  A    between atoms: _230  and  _232
REMARK   96  A    between atoms: _232  and  _233
REMARK   97  A    between atoms: _232  and  _235
REMARK   98  A    between atoms: _235  and  _236
REMARK   99  A    between atoms: _240  and  _241
REMARK  100  A    between atoms: _246  and  _248
REMARK  101  A    between atoms: _248  and  _249
REMARK  102  A    between atoms: _248  and  _251
REMARK  103  A    between atoms: _254  and  _256
REMARK  104  A    between atoms: _256  and  _257
REMARK  105  A    between atoms: _256  and  _259
REMARK  106  A    between atoms: _259  and  _260
REMARK  107  A    between atoms: _265  and  _267
REMARK  108  A    between atoms: _267  and  _268
REMARK  109  A    between atoms: _267  and  _270
REMARK  110  A    between atoms: _270  and  _271
REMARK  111  A    between atoms: _274  and  _276
REMARK  112  A    between atoms: _276  and  _277
REMARK  113  A    between atoms: _276  and  _279
REMARK  114  A    between atoms: _279  and  _280
REMARK  115  A    between atoms: _283  and  _285
REMARK  116  A    between atoms: _285  and  _286
REMARK  117  A    between atoms: _288  and  _290
REMARK  118  A    between atoms: _290  and  _291
REMARK  119  A    between atoms: _290  and  _293
REMARK  120  A    between atoms: _293  and  _294
REMARK  121  A    between atoms: _294  and  _295
REMARK  122  A    between atoms: _295  and  _296
REMARK  123  A    between atoms: _305  and  _307
REMARK  124  A    between atoms: _307  and  _308
REMARK  125  A    between atoms: _307  and  _310
REMARK  126  A    between atoms: _310  and  _311
REMARK  127  A    between atoms: _316  and  _318
REMARK  128  A    between atoms: _318  and  _319
REMARK  129  A    between atoms: _318  and  _321
REMARK  130  A    between atoms: _321  and  _322
REMARK  131  A    between atoms: _322  and  _323
REMARK  132  A    between atoms: _323  and  _324
REMARK  133  A    between atoms: _334  and  _335
REMARK  134  A    between atoms: _340  and  _342
REMARK  135  A    between atoms: _342  and  _343
REMARK  136  A    between atoms: _342  and  _345
REMARK  137  A    between atoms: _345  and  _346
REMARK  138  A    between atoms: _349  and  _351
REMARK  139  A    between atoms: _351  and  _352
REMARK  140  A    between atoms: _351  and  _354
REMARK  141  A    between atoms: _354  and  _355
REMARK  142  A    between atoms: _358  and  _360
REMARK  143  A    between atoms: _360  and  _361
REMARK  144  A    between atoms: _360  and  _363
REMARK  145  A    between atoms: _363  and  _364
REMARK  146  A    between atoms: _367  and  _369
REMARK  147  A    between atoms: _369  and  _370
REMARK  148  A    between atoms: _369  and  _372
REMARK  149  A    between atoms: _372  and  _373
REMARK  150  A    between atoms: _376  and  _378
REMARK  151  A    between atoms: _378  and  _379
REMARK  152  A    between atoms: _378  and  _381
REMARK  153  A    between atoms: _381  and  _382
REMARK  154  A    between atoms: _385  and  _387
REMARK  155  A    between atoms: _387  and  _388
REMARK  156  A    between atoms: _390  and  _392
REMARK  157  A    between atoms: _392  and  _393
REMARK  158  A    between atoms: _396  and  _398
REMARK  159  A    between atoms: _398  and  _399
REMARK  160  A    between atoms: _398  and  _401
REMARK  161  A    between atoms: _401  and  _402
REMARK  162  A    between atoms: _405  and  _407
REMARK  163  A    between atoms: _407  and  _408
REMARK  164  A    between atoms: _407  and  _410
REMARK  165  A    between atoms: _410  and  _411
REMARK  166  A    between atoms: _414  and  _416
REMARK  167  A    between atoms: _416  and  _417
REMARK  168  A    between atoms: _416  and  _419
REMARK  169  A    between atoms: _419  and  _420
REMARK  170  A    between atoms: _423  and  _425
REMARK  171  A    between atoms: _425  and  _426
REMARK  172  A    between atoms: _425  and  _428
REMARK  173  A    between atoms: _431  and  _433
REMARK  174  A    between atoms: _433  and  _434
REMARK  175  A    between atoms: _433  and  _436
REMARK  176  A    between atoms: _436  and  _437
REMARK  177  A    between atoms: _440  and  _442
REMARK  178  A    between atoms: _442  and  _443
REMARK  179  A    between atoms: _442  and  _445
REMARK  180  A    between atoms: _445  and  _446
REMARK  181  A    between atoms: _446  and  _447
REMARK  182  A    between atoms: _447  and  _448
REMARK  183  A    between atoms: _448  and  _449
REMARK  184  A    between atoms: _453  and  _455
REMARK  185  A    between atoms: _455  and  _456
REMARK  186  A    between atoms: _455  and  _458
REMARK  187  A    between atoms: _458  and  _459
REMARK  188  A    between atoms: _459  and  _460
REMARK  189  A    between atoms: _462  and  _464
REMARK  190  A    between atoms: _464  and  _465
REMARK  191  A    between atoms: _464  and  _467
REMARK  192  A    between atoms: _467  and  _468
REMARK  193  A    between atoms: _471  and  _473
REMARK  194  A    between atoms: _473  and  _474
REMARK  195  A    between atoms: _476  and  _478
REMARK  196  A    between atoms: _478  and  _479
REMARK  197  A    between atoms: _481  and  _483
REMARK  198  A    between atoms: _483  and  _484
REMARK  199  A    between atoms: _483  and  _486
REMARK  200  A    between atoms: _486  and  _487
REMARK  201  A    between atoms: _490  and  _492
REMARK  202  A    between atoms: _492  and  _493
REMARK  203  A    between atoms: _495  and  _497
REMARK  204  A    between atoms: _497  and  _498
REMARK  205  A    between atoms: _500  and  _502
REMARK  206  A    between atoms: _502  and  _503
REMARK  207  A    between atoms: _502  and  _505
REMARK  208  A    between atoms: _505  and  _506
REMARK  209  A    between atoms: _512  and  _514
REMARK  210  A    between atoms: _514  and  _515
REMARK  211  A    between atoms: _514  and  _517
REMARK  212  A    between atoms: _517  and  _518
REMARK  213  A    between atoms: _521  and  _523
REMARK  214  A    between atoms: _523  and  _524
REMARK  215  A    between atoms: _523  and  _526
REMARK  216  A    between atoms: _529  and  _531
REMARK  217  A    between atoms: _531  and  _532
REMARK  218  A    between atoms: _531  and  _534
REMARK  219  A    between atoms: _534  and  _535
REMARK  220  A    between atoms: _539  and  _540
REMARK  221  A    between atoms: _545  and  _547
REMARK  222  A    between atoms: _547  and  _548
REMARK  223  A    between atoms: _547  and  _550
REMARK  224  A    between atoms: _550  and  _551
REMARK  225  A    between atoms: _555  and  _556
REMARK  226  A    between atoms: _561  and  _563
REMARK  227  A    between atoms: _563  and  _564
REMARK  228  A    between atoms: _563  and  _566
REMARK  229  A    between atoms: _569  and  _571
REMARK  230  A    between atoms: _571  and  _572
REMARK  231  A    between atoms: _571  and  _574
REMARK  232  A    between atoms: _574  and  _575
REMARK  233  A    between atoms: _580  and  _582
REMARK  234  A    between atoms: _582  and  _583
REMARK  235  A    between atoms: _582  and  _585
REMARK  236  A    between atoms: _585  and  _586
REMARK  237  A    between atoms: _589  and  _591
REMARK  238  A    between atoms: _591  and  _592
REMARK  239  A    between atoms: _591  and  _594
REMARK  240  A    between atoms: _594  and  _595
REMARK  241  A    between atoms: _598  and  _600
REMARK  242  A    between atoms: _600  and  _601
REMARK  243  A    between atoms: _603  and  _605
REMARK  244  A    between atoms: _605  and  _606
REMARK  245  A    between atoms: _605  and  _608
REMARK  246  A    between atoms: _608  and  _609
REMARK  247  A    between atoms: _609  and  _610
REMARK  248  A    between atoms: _610  and  _611
REMARK  249  A    between atoms: _620  and  _622
REMARK  250  A    between atoms: _622  and  _623
REMARK  251  A    between atoms: _622  and  _625
REMARK  252  A    between atoms: _625  and  _626
REMARK                            x       y       z     vdW  Elec       q    Type
REMARK                         _______ _______ _______ _____ _____    ______ ____
ROOT
ATOM      1  O   HOH     1      18.427  14.472   6.789  0.00  0.00    +0.000 OA
ENDROOT
TORSDOF 0
REMARK  Name = ../refined-set-2016/1w5y/1w5y_pocket.pdb
REMARK  252 active torsions:
REMARK  status: ('A' for Active; 'I' for Inactive)
REMARK    1  A    between atoms: _1  and  _3
REMARK    2  A    between atoms: _3  and  _4
REMARK    3  A    between atoms: _3  and  _6
REMARK    4  A    between atoms: _6  and  _7
REMARK    5  A    between atoms: _7  and  _8
REMARK    6  A    between atoms: _8  and  _9
REMARK    7  A    between atoms: _19  and  _20
REMARK    8  A    between atoms: _25  and  _27
REMARK    9  A    between atoms: _27  and  _28
REMARK   10  A    between atoms: _27  and  _30
REMARK   11  A    between atoms: _30  and  _31
REMARK   12  A    between atoms: _34  and  _36
REMARK   13  A    between atoms: _36  and  _37
REMARK   14  A    between atoms: _36  and  _39
REMARK   15  A    between atoms: _39  and  _40
REMARK   16  A    between atoms: _43  and  _45
REMARK   17  A    between atoms: _45  and  _46
REMARK   18  A    between atoms: _45  and  _48
REMARK   19  A    between atoms: _48  and  _49
REMARK   20  A    between atoms: _52  and  _54
REMARK   21  A    between atoms: _54  and  _55
REMARK   22  A    between atoms: _54  and  _57
REMARK   23  A    between atoms: _57  and  _58
REMARK   24  A    between atoms: _61  and  _63
REMARK   25  A    between atoms: _63  and  _64
REMARK   26  A    between atoms: _63  and  _66
REMARK   27  A    between atoms: _66  and  _67
REMARK   28  A    between atoms: _70  and  _72
REMARK   29  A    between atoms: _72  and  _73
REMARK   30  A    between atoms: _75  and  _77
REMARK   31  A    between atoms: _77  and  _78
REMARK   32  A    between atoms: _81  and  _83
REMARK   33  A    between atoms: _83  and  _84
REMARK   34  A    between atoms: _83  and  _86
REMARK   35  A    between atoms: _86  and  _87
REMARK   36  A    between atoms: _90  and  _92
REMARK   37  A    between atoms: _92  and  _93
REMARK   38  A    between atoms: _92  and  _95
REMARK   39  A    between atoms: _95  and  _96
REMARK   40  A    between atoms: _99  and  _101
REMARK   41  A    between atoms: _101  and  _102
REMARK   42  A    between atoms: _101  and  _104
REMARK   43  A    between atoms: _104  and  _105
REMARK   44  A    between atoms: _108  and  _110
REMARK   45  A    between atoms: _110  and  _111
REMARK   46  A    between atoms: _110  and  _113
REMARK   47  A    between atoms: _116  and  _118
REMARK   48  A    between atoms: _118  and  _119
REMARK   49  A    between atoms: _118  and  _121
REMARK   50  A    between atoms: _121  and  _122
REMARK   51  A    between atoms: _125  and  _127
REMARK   52  A    between atoms: _127  and  _128
REMARK   53  A    between atoms: _127  and  _130
REMARK   54  A    between atoms: _130  and  _131
REMARK   55  A    between atoms: _131  and  _132
REMARK   56  A    between atoms: _132  and  _133
REMARK   57  A    between atoms: _133  and  _134
REMARK   58  A    between atoms: _138  and  _140
REMARK   59  A    between atoms: _140  and  _141
REMARK   60  A    between atoms: _140  and  _143
REMARK   61  A    between atoms: _143  and  _144
REMARK   62  A    between atoms: _144  and  _145
REMARK   63  A    between atoms: _147  and  _149
REMARK   64  A    between atoms: _149  and  _150
REMARK   65  A    between atoms: _149  and  _152
REMARK   66  A    between atoms: _152  and  _153
REMARK   67  A    between atoms: _156  and  _158
REMARK   68  A    between atoms: _158  and  _159
REMARK   69  A    between atoms: _161  and  _163
REMARK   70  A    between atoms: _163  and  _164
REMARK   71  A    between atoms: _166  and  _168
REMARK   72  A    between atoms: _168  and  _169
REMARK   73  A    between atoms: _168  and  _171
REMARK   74  A    between atoms: _171  and  _172
REMARK   75  A    between atoms: _175  and  _177
REMARK   76  A    between atoms: _177  and  _178
REMARK   77  A    between atoms: _180  and  _182
REMARK   78  A    between atoms: _182  and  _183
REMARK   79  A    between atoms: _185  and  _187
REMARK   80  A    between atoms: _187  and  _188
REMARK   81  A    between atoms: _187  and  _190
REMARK   82  A    between atoms: _190  and  _191
REMARK   83  A    between atoms: _197  and  _199
REMARK   84  A    between atoms: _199  and  _200
REMARK   85  A    between atoms: _199  and  _202
REMARK   86  A    between atoms: _202  and  _203
REMARK   87  A    between atoms: _206  and  _208
REMARK   88  A    between atoms: _208  and  _209
REMARK   89  A    between atoms: _208  and  _211
REMARK   90  A    between atoms: _214  and  _216
REMARK   91  A    between atoms: _216  and  _217
REMARK   92  A    between atoms: _216  and  _219
REMARK   93  A    between atoms: _219  and  _220
REMARK   94  A    between atoms: _224  and  _225
REMARK   95  A    between atoms: _230  and  _232
REMARK   96  A    between atoms: _232  and  _233
REMARK   97  A    between atoms: _232  and  _235
REMARK   98  A    between atoms: _235  and  _236
REMARK   99  A    between atoms: _240  and  _241
REMARK  100  A    between atoms: _246  and  _248
REMARK  101  A    between atoms: _248  and  _249
REMARK  102  A    between atoms: _248  and  _251
REMARK  103  A    between atoms: _254  and  _256
REMARK  104  A    between atoms: _256  and  _257
REMARK  105  A    between atoms: _256  and  _259
REMARK  106  A    between atoms: _259  and  _260
REMARK  107  A    between atoms: _265  and  _267
REMARK  108  A    between atoms: _267  and  _268
REMARK  109  A    between atoms: _267  and  _270
REMARK  110  A    between atoms: _270  and  _271
REMARK  111  A    between atoms: _274  and  _276
REMARK  112  A    between atoms: _276  and  _277
REMARK  113  A    between atoms: _276  and  _279
REMARK  114  A    between atoms: _279  and  _280
REMARK  115  A    between atoms: _283  and  _285
REMARK  116  A    between atoms: _285  and  _286
REMARK  117  A    between atoms: _288  and  _290
REMARK  118  A    between atoms: _290  and  _291
REMARK  119  A    between atoms: _290  and  _293
REMARK  120  A    between atoms: _293  and  _294
REMARK  121  A    between atoms: _294  and  _295
REMARK  122  A    between atoms: _295  and  _296
REMARK  123  A    between atoms: _305  and  _307
REMARK  124  A    between atoms: _307  and  _308
REMARK  125  A    between atoms: _307  and  _310
REMARK  126  A    between atoms: _310  and  _311
REMARK  127  A    between atoms: _316  and  _318
REMARK  128  A    between atoms: _318  and  _319
REMARK  129  A    between atoms: _318  and  _321
REMARK  130  A    between atoms: _321  and  _322
REMARK  131  A    between atoms: _322  and  _323
REMARK  132  A    between atoms: _323  and  _324
REMARK  133  A    between atoms: _334  and  _335
REMARK  134  A    between atoms: _340  and  _342
REMARK  135  A    between atoms: _342  and  _343
REMARK  136  A    between atoms: _342  and  _345
REMARK  137  A    between atoms: _345  and  _346
REMARK  138  A    between atoms: _349  and  _351
REMARK  139  A    between atoms: _351  and  _352
REMARK  140  A    between atoms: _351  and  _354
REMARK  141  A    between atoms: _354  and  _355
REMARK  142  A    between atoms: _358  and  _360
REMARK  143  A    between atoms: _360  and  _361
REMARK  144  A    between atoms: _360  and  _363
REMARK  145  A    between atoms: _363  and  _364
REMARK  146  A    between atoms: _367  and  _369
REMARK  147  A    between atoms: _369  and  _370
REMARK  148  A    between atoms: _369  and  _372
REMARK  149  A    between atoms: _372  and  _373
REMARK  150  A    between atoms: _376  and  _378
REMARK  151  A    between atoms: _378  and  _379
REMARK  152  A    between atoms: _378  and  _381
REMARK  153  A    between atoms: _381  and  _382
REMARK  154  A    between atoms: _385  and  _387
REMARK  155  A    between atoms: _387  and  _388
REMARK  156  A    between atoms: _390  and  _392
REMARK  157  A    between atoms: _392  and  _393
REMARK  158  A    between atoms: _396  and  _398
REMARK  159  A    between atoms: _398  and  _399
REMARK  160  A    between atoms: _398  and  _401
REMARK  161  A    between atoms: _401  and  _402
REMARK  162  A    between atoms: _405  and  _407
REMARK  163  A    between atoms: _407  and  _408
REMARK  164  A    between atoms: _407  and  _410
REMARK  165  A    between atoms: _410  and  _411
REMARK  166  A    between atoms: _414  and  _416
REMARK  167  A    between atoms: _416  and  _417
REMARK  168  A    between atoms: _416  and  _419
REMARK  169  A    between atoms: _419  and  _420
REMARK  170  A    between atoms: _423  and  _425
REMARK  171  A    between atoms: _425  and  _426
REMARK  172  A    between atoms: _425  and  _428
REMARK  173  A    between atoms: _431  and  _433
REMARK  174  A    between atoms: _433  and  _434
REMARK  175  A    between atoms: _433  and  _436
REMARK  176  A    between atoms: _436  and  _437
REMARK  177  A    between atoms: _440  and  _442
REMARK  178  A    between atoms: _442  and  _443
REMARK  179  A    between atoms: _442  and  _445
REMARK  180  A    between atoms: _445  and  _446
REMARK  181  A    between atoms: _446  and  _447
REMARK  182  A    between atoms: _447  and  _448
REMARK  183  A    between atoms: _448  and  _449
REMARK  184  A    between atoms: _453  and  _455
REMARK  185  A    between atoms: _455  and  _456
REMARK  186  A    between atoms: _455  and  _458
REMARK  187  A    between atoms: _458  and  _459
REMARK  188  A    between atoms: _459  and  _460
REMARK  189  A    between atoms: _462  and  _464
REMARK  190  A    between atoms: _464  and  _465
REMARK  191  A    between atoms: _464  and  _467
REMARK  192  A    between atoms: _467  and  _468
REMARK  193  A    between atoms: _471  and  _473
REMARK  194  A    between atoms: _473  and  _474
REMARK  195  A    between atoms: _476  and  _478
REMARK  196  A    between atoms: _478  and  _479
REMARK  197  A    between atoms: _481  and  _483
REMARK  198  A    between atoms: _483  and  _484
REMARK  199  A    between atoms: _483  and  _486
REMARK  200  A    between atoms: _486  and  _487
REMARK  201  A    between atoms: _490  and  _492
REMARK  202  A    between atoms: _492  and  _493
REMARK  203  A    between atoms: _495  and  _497
REMARK  204  A    between atoms: _497  and  _498
REMARK  205  A    between atoms: _500  and  _502
REMARK  206  A    between atoms: _502  and  _503
REMARK  207  A    between atoms: _502  and  _505
REMARK  208  A    between atoms: _505  and  _506
REMARK  209  A    between atoms: _512  and  _514
REMARK  210  A    between atoms: _514  and  _515
REMARK  211  A    between atoms: _514  and  _517
REMARK  212  A    between atoms: _517  and  _518
REMARK  213  A    between atoms: _521  and  _523
REMARK  214  A    between atoms: _523  and  _524
REMARK  215  A    between atoms: _523  and  _526
REMARK  216  A    between atoms: _529  and  _531
REMARK  217  A    between atoms: _531  and  _532
REMARK  218  A    between atoms: _531  and  _534
REMARK  219  A    between atoms: _534  and  _535
REMARK  220  A    between atoms: _539  and  _540
REMARK  221  A    between atoms: _545  and  _547
REMARK  222  A    between atoms: _547  and  _548
REMARK  223  A    between atoms: _547  and  _550
REMARK  224  A    between atoms: _550  and  _551
REMARK  225  A    between atoms: _555  and  _556
REMARK  226  A    between atoms: _561  and  _563
REMARK  227  A    between atoms: _563  and  _564
REMARK  228  A    between atoms: _563  and  _566
REMARK  229  A    between atoms: _569  and  _571
REMARK  230  A    between atoms: _571  and  _572
REMARK  231  A    between atoms: _571  and  _574
REMARK  232  A    between atoms: _574  and  _575
REMARK  233  A    between atoms: _580  and  _582
REMARK  234  A    between atoms: _582  and  _583
REMARK  235  A    between atoms: _582  and  _585
REMARK  236  A    between atoms: _585  and  _586
REMARK  237  A    between atoms: _589  and  _591
REMARK  238  A    between atoms: _591  and  _592
REMARK  239  A    between atoms: _591  and  _594
REMARK  240  A    between atoms: _594  and  _595
REMARK  241  A    between atoms: _598  and  _600
REMARK  242  A    between atoms: _600  and  _601
REMARK  243  A    between atoms: _603  and  _605
REMARK  244  A    between atoms: _605  and  _606
REMARK  245  A    between atoms: _605  and  _608
REMARK  246  A    between atoms: _608  and  _609
REMARK  247  A    between atoms: _609  and  _610
REMARK  248  A    between atoms: _610  and  _611
REMARK  249  A    between atoms: _620  and  _622
REMARK  250  A    between atoms: _622  and  _623
REMARK  251  A    between atoms: _622  and  _625
REMARK  252  A    between atoms: _625  and  _626
REMARK                            x       y       z     vdW  Elec       q    Type
REMARK                         _______ _______ _______ _____ _____    ______ ____
ROOT
ATOM      1  O   HOH     1      13.849  15.628  11.449  0.00  0.00    +0.000 OA
ENDROOT
TORSDOF 0
REMARK  Name = ../refined-set-2016/1w5y/1w5y_pocket.pdb
REMARK  252 active torsions:
REMARK  status: ('A' for Active; 'I' for Inactive)
REMARK    1  A    between atoms: _1  and  _3
REMARK    2  A    between atoms: _3  and  _4
REMARK    3  A    between atoms: _3  and  _6
REMARK    4  A    between atoms: _6  and  _7
REMARK    5  A    between atoms: _7  and  _8
REMARK    6  A    between atoms: _8  and  _9
REMARK    7  A    between atoms: _19  and  _20
REMARK    8  A    between atoms: _25  and  _27
REMARK    9  A    between atoms: _27  and  _28
REMARK   10  A    between atoms: _27  and  _30
REMARK   11  A    between atoms: _30  and  _31
REMARK   12  A    between atoms: _34  and  _36
REMARK   13  A    between atoms: _36  and  _37
REMARK   14  A    between atoms: _36  and  _39
REMARK   15  A    between atoms: _39  and  _40
REMARK   16  A    between atoms: _43  and  _45
REMARK   17  A    between atoms: _45  and  _46
REMARK   18  A    between atoms: _45  and  _48
REMARK   19  A    between atoms: _48  and  _49
REMARK   20  A    between atoms: _52  and  _54
REMARK   21  A    between atoms: _54  and  _55
REMARK   22  A    between atoms: _54  and  _57
REMARK   23  A    between atoms: _57  and  _58
REMARK   24  A    between atoms: _61  and  _63
REMARK   25  A    between atoms: _63  and  _64
REMARK   26  A    between atoms: _63  and  _66
REMARK   27  A    between atoms: _66  and  _67
REMARK   28  A    between atoms: _70  and  _72
REMARK   29  A    between atoms: _72  and  _73
REMARK   30  A    between atoms: _75  and  _77
REMARK   31  A    between atoms: _77  and  _78
REMARK   32  A    between atoms: _81  and  _83
REMARK   33  A    between atoms: _83  and  _84
REMARK   34  A    between atoms: _83  and  _86
REMARK   35  A    between atoms: _86  and  _87
REMARK   36  A    between atoms: _90  and  _92
REMARK   37  A    between atoms: _92  and  _93
REMARK   38  A    between atoms: _92  and  _95
REMARK   39  A    between atoms: _95  and  _96
REMARK   40  A    between atoms: _99  and  _101
REMARK   41  A    between atoms: _101  and  _102
REMARK   42  A    between atoms: _101  and  _104
REMARK   43  A    between atoms: _104  and  _105
REMARK   44  A    between atoms: _108  and  _110
REMARK   45  A    between atoms: _110  and  _111
REMARK   46  A    between atoms: _110  and  _113
REMARK   47  A    between atoms: _116  and  _118
REMARK   48  A    between atoms: _118  and  _119
REMARK   49  A    between atoms: _118  and  _121
REMARK   50  A    between atoms: _121  and  _122
REMARK   51  A    between atoms: _125  and  _127
REMARK   52  A    between atoms: _127  and  _128
REMARK   53  A    between atoms: _127  and  _130
REMARK   54  A    between atoms: _130  and  _131
REMARK   55  A    between atoms: _131  and  _132
REMARK   56  A    between atoms: _132  and  _133
REMARK   57  A    between atoms: _133  and  _134
REMARK   58  A    between atoms: _138  and  _140
REMARK   59  A    between atoms: _140  and  _141
REMARK   60  A    between atoms: _140  and  _143
REMARK   61  A    between atoms: _143  and  _144
REMARK   62  A    between atoms: _144  and  _145
REMARK   63  A    between atoms: _147  and  _149
REMARK   64  A    between atoms: _149  and  _150
REMARK   65  A    between atoms: _149  and  _152
REMARK   66  A    between atoms: _152  and  _153
REMARK   67  A    between atoms: _156  and  _158
REMARK   68  A    between atoms: _158  and  _159
REMARK   69  A    between atoms: _161  and  _163
REMARK   70  A    between atoms: _163  and  _164
REMARK   71  A    between atoms: _166  and  _168
REMARK   72  A    between atoms: _168  and  _169
REMARK   73  A    between atoms: _168  and  _171
REMARK   74  A    between atoms: _171  and  _172
REMARK   75  A    between atoms: _175  and  _177
REMARK   76  A    between atoms: _177  and  _178
REMARK   77  A    between atoms: _180  and  _182
REMARK   78  A    between atoms: _182  and  _183
REMARK   79  A    between atoms: _185  and  _187
REMARK   80  A    between atoms: _187  and  _188
REMARK   81  A    between atoms: _187  and  _190
REMARK   82  A    between atoms: _190  and  _191
REMARK   83  A    between atoms: _197  and  _199
REMARK   84  A    between atoms: _199  and  _200
REMARK   85  A    between atoms: _199  and  _202
REMARK   86  A    between atoms: _202  and  _203
REMARK   87  A    between atoms: _206  and  _208
REMARK   88  A    between atoms: _208  and  _209
REMARK   89  A    between atoms: _208  and  _211
REMARK   90  A    between atoms: _214  and  _216
REMARK   91  A    between atoms: _216  and  _217
REMARK   92  A    between atoms: _216  and  _219
REMARK   93  A    between atoms: _219  and  _220
REMARK   94  A    between atoms: _224  and  _225
REMARK   95  A    between atoms: _230  and  _232
REMARK   96  A    between atoms: _232  and  _233
REMARK   97  A    between atoms: _232  and  _235
REMARK   98  A    between atoms: _235  and  _236
REMARK   99  A    between atoms: _240  and  _241
REMARK  100  A    between atoms: _246  and  _248
REMARK  101  A    between atoms: _248  and  _249
REMARK  102  A    between atoms: _248  and  _251
REMARK  103  A    between atoms: _254  and  _256
REMARK  104  A    between atoms: _256  and  _257
REMARK  105  A    between atoms: _256  and  _259
REMARK  106  A    between atoms: _259  and  _260
REMARK  107  A    between atoms: _265  and  _267
REMARK  108  A    between atoms: _267  and  _268
REMARK  109  A    between atoms: _267  and  _270
REMARK  110  A    between atoms: _270  and  _271
REMARK  111  A    between atoms: _274  and  _276
REMARK  112  A    between atoms: _276  and  _277
REMARK  113  A    between atoms: _276  and  _279
REMARK  114  A    between atoms: _279  and  _280
REMARK  115  A    between atoms: _283  and  _285
REMARK  116  A    between atoms: _285  and  _286
REMARK  117  A    between atoms: _288  and  _290
REMARK  118  A    between atoms: _290  and  _291
REMARK  119  A    between atoms: _290  and  _293
REMARK  120  A    between atoms: _293  and  _294
REMARK  121  A    between atoms: _294  and  _295
REMARK  122  A    between atoms: _295  and  _296
REMARK  123  A    between atoms: _305  and  _307
REMARK  124  A    between atoms: _307  and  _308
REMARK  125  A    between atoms: _307  and  _310
REMARK  126  A    between atoms: _310  and  _311
REMARK  127  A    between atoms: _316  and  _318
REMARK  128  A    between atoms: _318  and  _319
REMARK  129  A    between atoms: _318  and  _321
REMARK  130  A    between atoms: _321  and  _322
REMARK  131  A    between atoms: _322  and  _323
REMARK  132  A    between atoms: _323  and  _324
REMARK  133  A    between atoms: _334  and  _335
REMARK  134  A    between atoms: _340  and  _342
REMARK  135  A    between atoms: _342  and  _343
REMARK  136  A    between atoms: _342  and  _345
REMARK  137  A    between atoms: _345  and  _346
REMARK  138  A    between atoms: _349  and  _351
REMARK  139  A    between atoms: _351  and  _352
REMARK  140  A    between atoms: _351  and  _354
REMARK  141  A    between atoms: _354  and  _355
REMARK  142  A    between atoms: _358  and  _360
REMARK  143  A    between atoms: _360  and  _361
REMARK  144  A    between atoms: _360  and  _363
REMARK  145  A    between atoms: _363  and  _364
REMARK  146  A    between atoms: _367  and  _369
REMARK  147  A    between atoms: _369  and  _370
REMARK  148  A    between atoms: _369  and  _372
REMARK  149  A    between atoms: _372  and  _373
REMARK  150  A    between atoms: _376  and  _378
REMARK  151  A    between atoms: _378  and  _379
REMARK  152  A    between atoms: _378  and  _381
REMARK  153  A    between atoms: _381  and  _382
REMARK  154  A    between atoms: _385  and  _387
REMARK  155  A    between atoms: _387  and  _388
REMARK  156  A    between atoms: _390  and  _392
REMARK  157  A    between atoms: _392  and  _393
REMARK  158  A    between atoms: _396  and  _398
REMARK  159  A    between atoms: _398  and  _399
REMARK  160  A    between atoms: _398  and  _401
REMARK  161  A    between atoms: _401  and  _402
REMARK  162  A    between atoms: _405  and  _407
REMARK  163  A    between atoms: _407  and  _408
REMARK  164  A    between atoms: _407  and  _410
REMARK  165  A    between atoms: _410  and  _411
REMARK  166  A    between atoms: _414  and  _416
REMARK  167  A    between atoms: _416  and  _417
REMARK  168  A    between atoms: _416  and  _419
REMARK  169  A    between atoms: _419  and  _420
REMARK  170  A    between atoms: _423  and  _425
REMARK  171  A    between atoms: _425  and  _426
REMARK  172  A    between atoms: _425  and  _428
REMARK  173  A    between atoms: _431  and  _433
REMARK  174  A    between atoms: _433  and  _434
REMARK  175  A    between atoms: _433  and  _436
REMARK  176  A    between atoms: _436  and  _437
REMARK  177  A    between atoms: _440  and  _442
REMARK  178  A    between atoms: _442  and  _443
REMARK  179  A    between atoms: _442  and  _445
REMARK  180  A    between atoms: _445  and  _446
REMARK  181  A    between atoms: _446  and  _447
REMARK  182  A    between atoms: _447  and  _448
REMARK  183  A    between atoms: _448  and  _449
REMARK  184  A    between atoms: _453  and  _455
REMARK  185  A    between atoms: _455  and  _456
REMARK  186  A    between atoms: _455  and  _458
REMARK  187  A    between atoms: _458  and  _459
REMARK  188  A    between atoms: _459  and  _460
REMARK  189  A    between atoms: _462  and  _464
REMARK  190  A    between atoms: _464  and  _465
REMARK  191  A    between atoms: _464  and  _467
REMARK  192  A    between atoms: _467  and  _468
REMARK  193  A    between atoms: _471  and  _473
REMARK  194  A    between atoms: _473  and  _474
REMARK  195  A    between atoms: _476  and  _478
REMARK  196  A    between atoms: _478  and  _479
REMARK  197  A    between atoms: _481  and  _483
REMARK  198  A    between atoms: _483  and  _484
REMARK  199  A    between atoms: _483  and  _486
REMARK  200  A    between atoms: _486  and  _487
REMARK  201  A    between atoms: _490  and  _492
REMARK  202  A    between atoms: _492  and  _493
REMARK  203  A    between atoms: _495  and  _497
REMARK  204  A    between atoms: _497  and  _498
REMARK  205  A    between atoms: _500  and  _502
REMARK  206  A    between atoms: _502  and  _503
REMARK  207  A    between atoms: _502  and  _505
REMARK  208  A    between atoms: _505  and  _506
REMARK  209  A    between atoms: _512  and  _514
REMARK  210  A    between atoms: _514  and  _515
REMARK  211  A    between atoms: _514  and  _517
REMARK  212  A    between atoms: _517  and  _518
REMARK  213  A    between atoms: _521  and  _523
REMARK  214  A    between atoms: _523  and  _524
REMARK  215  A    between atoms: _523  and  _526
REMARK  216  A    between atoms: _529  and  _531
REMARK  217  A    between atoms: _531  and  _532
REMARK  218  A    between atoms: _531  and  _534
REMARK  219  A    between atoms: _534  and  _535
REMARK  220  A    between atoms: _539  and  _540
REMARK  221  A    between atoms: _545  and  _547
REMARK  222  A    between atoms: _547  and  _548
REMARK  223  A    between atoms: _547  and  _550
REMARK  224  A    between atoms: _550  and  _551
REMARK  225  A    between atoms: _555  and  _556
REMARK  226  A    between atoms: _561  and  _563
REMARK  227  A    between atoms: _563  and  _564
REMARK  228  A    between atoms: _563  and  _566
REMARK  229  A    between atoms: _569  and  _571
REMARK  230  A    between atoms: _571  and  _572
REMARK  231  A    between atoms: _571  and  _574
REMARK  232  A    between atoms: _574  and  _575
REMARK  233  A    between atoms: _580  and  _582
REMARK  234  A    between atoms: _582  and  _583
REMARK  235  A    between atoms: _582  and  _585
REMARK  236  A    between atoms: _585  and  _586
REMARK  237  A    between atoms: _589  and  _591
REMARK  238  A    between atoms: _591  and  _592
REMARK  239  A    between atoms: _591  and  _594
REMARK  240  A    between atoms: _594  and  _595
REMARK  241  A    between atoms: _598  and  _600
REMARK  242  A    between atoms: _600  and  _601
REMARK  243  A    between atoms: _603  and  _605
REMARK  244  A    between atoms: _605  and  _606
REMARK  245  A    between atoms: _605  and  _608
REMARK  246  A    between atoms: _608  and  _609
REMARK  247  A    between atoms: _609  and  _610
REMARK  248  A    between atoms: _610  and  _611
REMARK  249  A    between atoms: _620  and  _622
REMARK  250  A    between atoms: _622  and  _623
REMARK  251  A    between atoms: _622  and  _625
REMARK  252  A    between atoms: _625  and  _626
REMARK                            x       y       z     vdW  Elec       q    Type
REMARK                         _______ _______ _______ _____ _____    ______ ____
ROOT
ATOM      1  O   HOH     1      10.376  17.690  14.136  0.00  0.00    +0.000 OA
ENDROOT
TORSDOF 0
REMARK  Name = ../refined-set-2016/1w5y/1w5y_pocket.pdb
REMARK  252 active torsions:
REMARK  status: ('A' for Active; 'I' for Inactive)
REMARK    1  A    between atoms: _1  and  _3
REMARK    2  A    between atoms: _3  and  _4
REMARK    3  A    between atoms: _3  and  _6
REMARK    4  A    between atoms: _6  and  _7
REMARK    5  A    between atoms: _7  and  _8
REMARK    6  A    between atoms: _8  and  _9
REMARK    7  A    between atoms: _19  and  _20
REMARK    8  A    between atoms: _25  and  _27
REMARK    9  A    between atoms: _27  and  _28
REMARK   10  A    between atoms: _27  and  _30
REMARK   11  A    between atoms: _30  and  _31
REMARK   12  A    between atoms: _34  and  _36
REMARK   13  A    between atoms: _36  and  _37
REMARK   14  A    between atoms: _36  and  _39
REMARK   15  A    between atoms: _39  and  _40
REMARK   16  A    between atoms: _43  and  _45
REMARK   17  A    between atoms: _45  and  _46
REMARK   18  A    between atoms: _45  and  _48
REMARK   19  A    between atoms: _48  and  _49
REMARK   20  A    between atoms: _52  and  _54
REMARK   21  A    between atoms: _54  and  _55
REMARK   22  A    between atoms: _54  and  _57
REMARK   23  A    between atoms: _57  and  _58
REMARK   24  A    between atoms: _61  and  _63
REMARK   25  A    between atoms: _63  and  _64
REMARK   26  A    between atoms: _63  and  _66
REMARK   27  A    between atoms: _66  and  _67
REMARK   28  A    between atoms: _70  and  _72
REMARK   29  A    between atoms: _72  and  _73
REMARK   30  A    between atoms: _75  and  _77
REMARK   31  A    between atoms: _77  and  _78
REMARK   32  A    between atoms: _81  and  _83
REMARK   33  A    between atoms: _83  and  _84
REMARK   34  A    between atoms: _83  and  _86
REMARK   35  A    between atoms: _86  and  _87
REMARK   36  A    between atoms: _90  and  _92
REMARK   37  A    between atoms: _92  and  _93
REMARK   38  A    between atoms: _92  and  _95
REMARK   39  A    between atoms: _95  and  _96
REMARK   40  A    between atoms: _99  and  _101
REMARK   41  A    between atoms: _101  and  _102
REMARK   42  A    between atoms: _101  and  _104
REMARK   43  A    between atoms: _104  and  _105
REMARK   44  A    between atoms: _108  and  _110
REMARK   45  A    between atoms: _110  and  _111
REMARK   46  A    between atoms: _110  and  _113
REMARK   47  A    between atoms: _116  and  _118
REMARK   48  A    between atoms: _118  and  _119
REMARK   49  A    between atoms: _118  and  _121
REMARK   50  A    between atoms: _121  and  _122
REMARK   51  A    between atoms: _125  and  _127
REMARK   52  A    between atoms: _127  and  _128
REMARK   53  A    between atoms: _127  and  _130
REMARK   54  A    between atoms: _130  and  _131
REMARK   55  A    between atoms: _131  and  _132
REMARK   56  A    between atoms: _132  and  _133
REMARK   57  A    between atoms: _133  and  _134
REMARK   58  A    between atoms: _138  and  _140
REMARK   59  A    between atoms: _140  and  _141
REMARK   60  A    between atoms: _140  and  _143
REMARK   61  A    between atoms: _143  and  _144
REMARK   62  A    between atoms: _144  and  _145
REMARK   63  A    between atoms: _147  and  _149
REMARK   64  A    between atoms: _149  and  _150
REMARK   65  A    between atoms: _149  and  _152
REMARK   66  A    between atoms: _152  and  _153
REMARK   67  A    between atoms: _156  and  _158
REMARK   68  A    between atoms: _158  and  _159
REMARK   69  A    between atoms: _161  and  _163
REMARK   70  A    between atoms: _163  and  _164
REMARK   71  A    between atoms: _166  and  _168
REMARK   72  A    between atoms: _168  and  _169
REMARK   73  A    between atoms: _168  and  _171
REMARK   74  A    between atoms: _171  and  _172
REMARK   75  A    between atoms: _175  and  _177
REMARK   76  A    between atoms: _177  and  _178
REMARK   77  A    between atoms: _180  and  _182
REMARK   78  A    between atoms: _182  and  _183
REMARK   79  A    between atoms: _185  and  _187
REMARK   80  A    between atoms: _187  and  _188
REMARK   81  A    between atoms: _187  and  _190
REMARK   82  A    between atoms: _190  and  _191
REMARK   83  A    between atoms: _197  and  _199
REMARK   84  A    between atoms: _199  and  _200
REMARK   85  A    between atoms: _199  and  _202
REMARK   86  A    between atoms: _202  and  _203
REMARK   87  A    between atoms: _206  and  _208
REMARK   88  A    between atoms: _208  and  _209
REMARK   89  A    between atoms: _208  and  _211
REMARK   90  A    between atoms: _214  and  _216
REMARK   91  A    between atoms: _216  and  _217
REMARK   92  A    between atoms: _216  and  _219
REMARK   93  A    between atoms: _219  and  _220
REMARK   94  A    between atoms: _224  and  _225
REMARK   95  A    between atoms: _230  and  _232
REMARK   96  A    between atoms: _232  and  _233
REMARK   97  A    between atoms: _232  and  _235
REMARK   98  A    between atoms: _235  and  _236
REMARK   99  A    between atoms: _240  and  _241
REMARK  100  A    between atoms: _246  and  _248
REMARK  101  A    between atoms: _248  and  _249
REMARK  102  A    between atoms: _248  and  _251
REMARK  103  A    between atoms: _254  and  _256
REMARK  104  A    between atoms: _256  and  _257
REMARK  105  A    between atoms: _256  and  _259
REMARK  106  A    between atoms: _259  and  _260
REMARK  107  A    between atoms: _265  and  _267
REMARK  108  A    between atoms: _267  and  _268
REMARK  109  A    between atoms: _267  and  _270
REMARK  110  A    between atoms: _270  and  _271
REMARK  111  A    between atoms: _274  and  _276
REMARK  112  A    between atoms: _276  and  _277
REMARK  113  A    between atoms: _276  and  _279
REMARK  114  A    between atoms: _279  and  _280
REMARK  115  A    between atoms: _283  and  _285
REMARK  116  A    between atoms: _285  and  _286
REMARK  117  A    between atoms: _288  and  _290
REMARK  118  A    between atoms: _290  and  _291
REMARK  119  A    between atoms: _290  and  _293
REMARK  120  A    between atoms: _293  and  _294
REMARK  121  A    between atoms: _294  and  _295
REMARK  122  A    between atoms: _295  and  _296
REMARK  123  A    between atoms: _305  and  _307
REMARK  124  A    between atoms: _307  and  _308
REMARK  125  A    between atoms: _307  and  _310
REMARK  126  A    between atoms: _310  and  _311
REMARK  127  A    between atoms: _316  and  _318
REMARK  128  A    between atoms: _318  and  _319
REMARK  129  A    between atoms: _318  and  _321
REMARK  130  A    between atoms: _321  and  _322
REMARK  131  A    between atoms: _322  and  _323
REMARK  132  A    between atoms: _323  and  _324
REMARK  133  A    between atoms: _334  and  _335
REMARK  134  A    between atoms: _340  and  _342
REMARK  135  A    between atoms: _342  and  _343
REMARK  136  A    between atoms: _342  and  _345
REMARK  137  A    between atoms: _345  and  _346
REMARK  138  A    between atoms: _349  and  _351
REMARK  139  A    between atoms: _351  and  _352
REMARK  140  A    between atoms: _351  and  _354
REMARK  141  A    between atoms: _354  and  _355
REMARK  142  A    between atoms: _358  and  _360
REMARK  143  A    between atoms: _360  and  _361
REMARK  144  A    between atoms: _360  and  _363
REMARK  145  A    between atoms: _363  and  _364
REMARK  146  A    between atoms: _367  and  _369
REMARK  147  A    between atoms: _369  and  _370
REMARK  148  A    between atoms: _369  and  _372
REMARK  149  A    between atoms: _372  and  _373
REMARK  150  A    between atoms: _376  and  _378
REMARK  151  A    between atoms: _378  and  _379
REMARK  152  A    between atoms: _378  and  _381
REMARK  153  A    between atoms: _381  and  _382
REMARK  154  A    between atoms: _385  and  _387
REMARK  155  A    between atoms: _387  and  _388
REMARK  156  A    between atoms: _390  and  _392
REMARK  157  A    between atoms: _392  and  _393
REMARK  158  A    between atoms: _396  and  _398
REMARK  159  A    between atoms: _398  and  _399
REMARK  160  A    between atoms: _398  and  _401
REMARK  161  A    between atoms: _401  and  _402
REMARK  162  A    between atoms: _405  and  _407
REMARK  163  A    between atoms: _407  and  _408
REMARK  164  A    between atoms: _407  and  _410
REMARK  165  A    between atoms: _410  and  _411
REMARK  166  A    between atoms: _414  and  _416
REMARK  167  A    between atoms: _416  and  _417
REMARK  168  A    between atoms: _416  and  _419
REMARK  169  A    between atoms: _419  and  _420
REMARK  170  A    between atoms: _423  and  _425
REMARK  171  A    between atoms: _425  and  _426
REMARK  172  A    between atoms: _425  and  _428
REMARK  173  A    between atoms: _431  and  _433
REMARK  174  A    between atoms: _433  and  _434
REMARK  175  A    between atoms: _433  and  _436
REMARK  176  A    between atoms: _436  and  _437
REMARK  177  A    between atoms: _440  and  _442
REMARK  178  A    between atoms: _442  and  _443
REMARK  179  A    between atoms: _442  and  _445
REMARK  180  A    between atoms: _445  and  _446
REMARK  181  A    between atoms: _446  and  _447
REMARK  182  A    between atoms: _447  and  _448
REMARK  183  A    between atoms: _448  and  _449
REMARK  184  A    between atoms: _453  and  _455
REMARK  185  A    between atoms: _455  and  _456
REMARK  186  A    between atoms: _455  and  _458
REMARK  187  A    between atoms: _458  and  _459
REMARK  188  A    between atoms: _459  and  _460
REMARK  189  A    between atoms: _462  and  _464
REMARK  190  A    between atoms: _464  and  _465
REMARK  191  A    between atoms: _464  and  _467
REMARK  192  A    between atoms: _467  and  _468
REMARK  193  A    between atoms: _471  and  _473
REMARK  194  A    between atoms: _473  and  _474
REMARK  195  A    between atoms: _476  and  _478
REMARK  196  A    between atoms: _478  and  _479
REMARK  197  A    between atoms: _481  and  _483
REMARK  198  A    between atoms: _483  and  _484
REMARK  199  A    between atoms: _483  and  _486
REMARK  200  A    between atoms: _486  and  _487
REMARK  201  A    between atoms: _490  and  _492
REMARK  202  A    between atoms: _492  and  _493
REMARK  203  A    between atoms: _495  and  _497
REMARK  204  A    between atoms: _497  and  _498
REMARK  205  A    between atoms: _500  and  _502
REMARK  206  A    between atoms: _502  and  _503
REMARK  207  A    between atoms: _502  and  _505
REMARK  208  A    between atoms: _505  and  _506
REMARK  209  A    between atoms: _512  and  _514
REMARK  210  A    between atoms: _514  and  _515
REMARK  211  A    between atoms: _514  and  _517
REMARK  212  A    between atoms: _517  and  _518
REMARK  213  A    between atoms: _521  and  _523
REMARK  214  A    between atoms: _523  and  _524
REMARK  215  A    between atoms: _523  and  _526
REMARK  216  A    between atoms: _529  and  _531
REMARK  217  A    between atoms: _531  and  _532
REMARK  218  A    between atoms: _531  and  _534
REMARK  219  A    between atoms: _534  and  _535
REMARK  220  A    between atoms: _539  and  _540
REMARK  221  A    between atoms: _545  and  _547
REMARK  222  A    between atoms: _547  and  _548
REMARK  223  A    between atoms: _547  and  _550
REMARK  224  A    between atoms: _550  and  _551
REMARK  225  A    between atoms: _555  and  _556
REMARK  226  A    between atoms: _561  and  _563
REMARK  227  A    between atoms: _563  and  _564
REMARK  228  A    between atoms: _563  and  _566
REMARK  229  A    between atoms: _569  and  _571
REMARK  230  A    between atoms: _571  and  _572
REMARK  231  A    between atoms: _571  and  _574
REMARK  232  A    between atoms: _574  and  _575
REMARK  233  A    between atoms: _580  and  _582
REMARK  234  A    between atoms: _582  and  _583
REMARK  235  A    between atoms: _582  and  _585
REMARK  236  A    between atoms: _585  and  _586
REMARK  237  A    between atoms: _589  and  _591
REMARK  238  A    between atoms: _591  and  _592
REMARK  239  A    between atoms: _591  and  _594
REMARK  240  A    between atoms: _594  and  _595
REMARK  241  A    between atoms: _598  and  _600
REMARK  242  A    between atoms: _600  and  _601
REMARK  243  A    between atoms: _603  and  _605
REMARK  244  A    between atoms: _605  and  _606
REMARK  245  A    between atoms: _605  and  _608
REMARK  246  A    between atoms: _608  and  _609
REMARK  247  A    between atoms: _609  and  _610
REMARK  248  A    between atoms: _610  and  _611
REMARK  249  A    between atoms: _620  and  _622
REMARK  250  A    between atoms: _622  and  _623
REMARK  251  A    between atoms: _622  and  _625
REMARK  252  A    between atoms: _625  and  _626
REMARK                            x       y       z     vdW  Elec       q    Type
REMARK                         _______ _______ _______ _____ _____    ______ ____
ROOT
ATOM      1  O   HOH     1      20.580  16.068  -3.707  0.00  0.00    +0.000 OA
ENDROOT
TORSDOF 0
REMARK  Name = ../refined-set-2016/1w5y/1w5y_pocket.pdb
REMARK  252 active torsions:
REMARK  status: ('A' for Active; 'I' for Inactive)
REMARK    1  A    between atoms: _1  and  _3
REMARK    2  A    between atoms: _3  and  _4
REMARK    3  A    between atoms: _3  and  _6
REMARK    4  A    between atoms: _6  and  _7
REMARK    5  A    between atoms: _7  and  _8
REMARK    6  A    between atoms: _8  and  _9
REMARK    7  A    between atoms: _19  and  _20
REMARK    8  A    between atoms: _25  and  _27
REMARK    9  A    between atoms: _27  and  _28
REMARK   10  A    between atoms: _27  and  _30
REMARK   11  A    between atoms: _30  and  _31
REMARK   12  A    between atoms: _34  and  _36
REMARK   13  A    between atoms: _36  and  _37
REMARK   14  A    between atoms: _36  and  _39
REMARK   15  A    between atoms: _39  and  _40
REMARK   16  A    between atoms: _43  and  _45
REMARK   17  A    between atoms: _45  and  _46
REMARK   18  A    between atoms: _45  and  _48
REMARK   19  A    between atoms: _48  and  _49
REMARK   20  A    between atoms: _52  and  _54
REMARK   21  A    between atoms: _54  and  _55
REMARK   22  A    between atoms: _54  and  _57
REMARK   23  A    between atoms: _57  and  _58
REMARK   24  A    between atoms: _61  and  _63
REMARK   25  A    between atoms: _63  and  _64
REMARK   26  A    between atoms: _63  and  _66
REMARK   27  A    between atoms: _66  and  _67
REMARK   28  A    between atoms: _70  and  _72
REMARK   29  A    between atoms: _72  and  _73
REMARK   30  A    between atoms: _75  and  _77
REMARK   31  A    between atoms: _77  and  _78
REMARK   32  A    between atoms: _81  and  _83
REMARK   33  A    between atoms: _83  and  _84
REMARK   34  A    between atoms: _83  and  _86
REMARK   35  A    between atoms: _86  and  _87
REMARK   36  A    between atoms: _90  and  _92
REMARK   37  A    between atoms: _92  and  _93
REMARK   38  A    between atoms: _92  and  _95
REMARK   39  A    between atoms: _95  and  _96
REMARK   40  A    between atoms: _99  and  _101
REMARK   41  A    between atoms: _101  and  _102
REMARK   42  A    between atoms: _101  and  _104
REMARK   43  A    between atoms: _104  and  _105
REMARK   44  A    between atoms: _108  and  _110
REMARK   45  A    between atoms: _110  and  _111
REMARK   46  A    between atoms: _110  and  _113
REMARK   47  A    between atoms: _116  and  _118
REMARK   48  A    between atoms: _118  and  _119
REMARK   49  A    between atoms: _118  and  _121
REMARK   50  A    between atoms: _121  and  _122
REMARK   51  A    between atoms: _125  and  _127
REMARK   52  A    between atoms: _127  and  _128
REMARK   53  A    between atoms: _127  and  _130
REMARK   54  A    between atoms: _130  and  _131
REMARK   55  A    between atoms: _131  and  _132
REMARK   56  A    between atoms: _132  and  _133
REMARK   57  A    between atoms: _133  and  _134
REMARK   58  A    between atoms: _138  and  _140
REMARK   59  A    between atoms: _140  and  _141
REMARK   60  A    between atoms: _140  and  _143
REMARK   61  A    between atoms: _143  and  _144
REMARK   62  A    between atoms: _144  and  _145
REMARK   63  A    between atoms: _147  and  _149
REMARK   64  A    between atoms: _149  and  _150
REMARK   65  A    between atoms: _149  and  _152
REMARK   66  A    between atoms: _152  and  _153
REMARK   67  A    between atoms: _156  and  _158
REMARK   68  A    between atoms: _158  and  _159
REMARK   69  A    between atoms: _161  and  _163
REMARK   70  A    between atoms: _163  and  _164
REMARK   71  A    between atoms: _166  and  _168
REMARK   72  A    between atoms: _168  and  _169
REMARK   73  A    between atoms: _168  and  _171
REMARK   74  A    between atoms: _171  and  _172
REMARK   75  A    between atoms: _175  and  _177
REMARK   76  A    between atoms: _177  and  _178
REMARK   77  A    between atoms: _180  and  _182
REMARK   78  A    between atoms: _182  and  _183
REMARK   79  A    between atoms: _185  and  _187
REMARK   80  A    between atoms: _187  and  _188
REMARK   81  A    between atoms: _187  and  _190
REMARK   82  A    between atoms: _190  and  _191
REMARK   83  A    between atoms: _197  and  _199
REMARK   84  A    between atoms: _199  and  _200
REMARK   85  A    between atoms: _199  and  _202
REMARK   86  A    between atoms: _202  and  _203
REMARK   87  A    between atoms: _206  and  _208
REMARK   88  A    between atoms: _208  and  _209
REMARK   89  A    between atoms: _208  and  _211
REMARK   90  A    between atoms: _214  and  _216
REMARK   91  A    between atoms: _216  and  _217
REMARK   92  A    between atoms: _216  and  _219
REMARK   93  A    between atoms: _219  and  _220
REMARK   94  A    between atoms: _224  and  _225
REMARK   95  A    between atoms: _230  and  _232
REMARK   96  A    between atoms: _232  and  _233
REMARK   97  A    between atoms: _232  and  _235
REMARK   98  A    between atoms: _235  and  _236
REMARK   99  A    between atoms: _240  and  _241
REMARK  100  A    between atoms: _246  and  _248
REMARK  101  A    between atoms: _248  and  _249
REMARK  102  A    between atoms: _248  and  _251
REMARK  103  A    between atoms: _254  and  _256
REMARK  104  A    between atoms: _256  and  _257
REMARK  105  A    between atoms: _256  and  _259
REMARK  106  A    between atoms: _259  and  _260
REMARK  107  A    between atoms: _265  and  _267
REMARK  108  A    between atoms: _267  and  _268
REMARK  109  A    between atoms: _267  and  _270
REMARK  110  A    between atoms: _270  and  _271
REMARK  111  A    between atoms: _274  and  _276
REMARK  112  A    between atoms: _276  and  _277
REMARK  113  A    between atoms: _276  and  _279
REMARK  114  A    between atoms: _279  and  _280
REMARK  115  A    between atoms: _283  and  _285
REMARK  116  A    between atoms: _285  and  _286
REMARK  117  A    between atoms: _288  and  _290
REMARK  118  A    between atoms: _290  and  _291
REMARK  119  A    between atoms: _290  and  _293
REMARK  120  A    between atoms: _293  and  _294
REMARK  121  A    between atoms: _294  and  _295
REMARK  122  A    between atoms: _295  and  _296
REMARK  123  A    between atoms: _305  and  _307
REMARK  124  A    between atoms: _307  and  _308
REMARK  125  A    between atoms: _307  and  _310
REMARK  126  A    between atoms: _310  and  _311
REMARK  127  A    between atoms: _316  and  _318
REMARK  128  A    between atoms: _318  and  _319
REMARK  129  A    between atoms: _318  and  _321
REMARK  130  A    between atoms: _321  and  _322
REMARK  131  A    between atoms: _322  and  _323
REMARK  132  A    between atoms: _323  and  _324
REMARK  133  A    between atoms: _334  and  _335
REMARK  134  A    between atoms: _340  and  _342
REMARK  135  A    between atoms: _342  and  _343
REMARK  136  A    between atoms: _342  and  _345
REMARK  137  A    between atoms: _345  and  _346
REMARK  138  A    between atoms: _349  and  _351
REMARK  139  A    between atoms: _351  and  _352
REMARK  140  A    between atoms: _351  and  _354
REMARK  141  A    between atoms: _354  and  _355
REMARK  142  A    between atoms: _358  and  _360
REMARK  143  A    between atoms: _360  and  _361
REMARK  144  A    between atoms: _360  and  _363
REMARK  145  A    between atoms: _363  and  _364
REMARK  146  A    between atoms: _367  and  _369
REMARK  147  A    between atoms: _369  and  _370
REMARK  148  A    between atoms: _369  and  _372
REMARK  149  A    between atoms: _372  and  _373
REMARK  150  A    between atoms: _376  and  _378
REMARK  151  A    between atoms: _378  and  _379
REMARK  152  A    between atoms: _378  and  _381
REMARK  153  A    between atoms: _381  and  _382
REMARK  154  A    between atoms: _385  and  _387
REMARK  155  A    between atoms: _387  and  _388
REMARK  156  A    between atoms: _390  and  _392
REMARK  157  A    between atoms: _392  and  _393
REMARK  158  A    between atoms: _396  and  _398
REMARK  159  A    between atoms: _398  and  _399
REMARK  160  A    between atoms: _398  and  _401
REMARK  161  A    between atoms: _401  and  _402
REMARK  162  A    between atoms: _405  and  _407
REMARK  163  A    between atoms: _407  and  _408
REMARK  164  A    between atoms: _407  and  _410
REMARK  165  A    between atoms: _410  and  _411
REMARK  166  A    between atoms: _414  and  _416
REMARK  167  A    between atoms: _416  and  _417
REMARK  168  A    between atoms: _416  and  _419
REMARK  169  A    between atoms: _419  and  _420
REMARK  170  A    between atoms: _423  and  _425
REMARK  171  A    between atoms: _425  and  _426
REMARK  172  A    between atoms: _425  and  _428
REMARK  173  A    between atoms: _431  and  _433
REMARK  174  A    between atoms: _433  and  _434
REMARK  175  A    between atoms: _433  and  _436
REMARK  176  A    between atoms: _436  and  _437
REMARK  177  A    between atoms: _440  and  _442
REMARK  178  A    between atoms: _442  and  _443
REMARK  179  A    between atoms: _442  and  _445
REMARK  180  A    between atoms: _445  and  _446
REMARK  181  A    between atoms: _446  and  _447
REMARK  182  A    between atoms: _447  and  _448
REMARK  183  A    between atoms: _448  and  _449
REMARK  184  A    between atoms: _453  and  _455
REMARK  185  A    between atoms: _455  and  _456
REMARK  186  A    between atoms: _455  and  _458
REMARK  187  A    between atoms: _458  and  _459
REMARK  188  A    between atoms: _459  and  _460
REMARK  189  A    between atoms: _462  and  _464
REMARK  190  A    between atoms: _464  and  _465
REMARK  191  A    between atoms: _464  and  _467
REMARK  192  A    between atoms: _467  and  _468
REMARK  193  A    between atoms: _471  and  _473
REMARK  194  A    between atoms: _473  and  _474
REMARK  195  A    between atoms: _476  and  _478
REMARK  196  A    between atoms: _478  and  _479
REMARK  197  A    between atoms: _481  and  _483
REMARK  198  A    between atoms: _483  and  _484
REMARK  199  A    between atoms: _483  and  _486
REMARK  200  A    between atoms: _486  and  _487
REMARK  201  A    between atoms: _490  and  _492
REMARK  202  A    between atoms: _492  and  _493
REMARK  203  A    between atoms: _495  and  _497
REMARK  204  A    between atoms: _497  and  _498
REMARK  205  A    between atoms: _500  and  _502
REMARK  206  A    between atoms: _502  and  _503
REMARK  207  A    between atoms: _502  and  _505
REMARK  208  A    between atoms: _505  and  _506
REMARK  209  A    between atoms: _512  and  _514
REMARK  210  A    between atoms: _514  and  _515
REMARK  211  A    between atoms: _514  and  _517
REMARK  212  A    between atoms: _517  and  _518
REMARK  213  A    between atoms: _521  and  _523
REMARK  214  A    between atoms: _523  and  _524
REMARK  215  A    between atoms: _523  and  _526
REMARK  216  A    between atoms: _529  and  _531
REMARK  217  A    between atoms: _531  and  _532
REMARK  218  A    between atoms: _531  and  _534
REMARK  219  A    between atoms: _534  and  _535
REMARK  220  A    between atoms: _539  and  _540
REMARK  221  A    between atoms: _545  and  _547
REMARK  222  A    between atoms: _547  and  _548
REMARK  223  A    between atoms: _547  and  _550
REMARK  224  A    between atoms: _550  and  _551
REMARK  225  A    between atoms: _555  and  _556
REMARK  226  A    between atoms: _561  and  _563
REMARK  227  A    between atoms: _563  and  _564
REMARK  228  A    between atoms: _563  and  _566
REMARK  229  A    between atoms: _569  and  _571
REMARK  230  A    between atoms: _571  and  _572
REMARK  231  A    between atoms: _571  and  _574
REMARK  232  A    between atoms: _574  and  _575
REMARK  233  A    between atoms: _580  and  _582
REMARK  234  A    between atoms: _582  and  _583
REMARK  235  A    between atoms: _582  and  _585
REMARK  236  A    between atoms: _585  and  _586
REMARK  237  A    between atoms: _589  and  _591
REMARK  238  A    between atoms: _591  and  _592
REMARK  239  A    between atoms: _591  and  _594
REMARK  240  A    between atoms: _594  and  _595
REMARK  241  A    between atoms: _598  and  _600
REMARK  242  A    between atoms: _600  and  _601
REMARK  243  A    between atoms: _603  and  _605
REMARK  244  A    between atoms: _605  and  _606
REMARK  245  A    between atoms: _605  and  _608
REMARK  246  A    between atoms: _608  and  _609
REMARK  247  A    between atoms: _609  and  _610
REMARK  248  A    between atoms: _610  and  _611
REMARK  249  A    between atoms: _620  and  _622
REMARK  250  A    between atoms: _622  and  _623
REMARK  251  A    between atoms: _622  and  _625
REMARK  252  A    between atoms: _625  and  _626
REMARK                            x       y       z     vdW  Elec       q    Type
REMARK                         _______ _______ _______ _____ _____    ______ ____
ROOT
ATOM      1  O   HOH     1       3.231  22.986  -0.915  0.00  0.00    +0.000 OA
ENDROOT
TORSDOF 0
