REMARK  Name = ../refined-set-2016/3b68/3b68_pocket.pdb
REMARK  284 active torsions:
REMARK  status: ('A' for Active; 'I' for Inactive)
REMARK    1  A    between atoms: _1  and  _3
REMARK    2  A    between atoms: _3  and  _4
REMARK    3  A    between atoms: _3  and  _6
REMARK    4  A    between atoms: _9  and  _11
REMARK    5  A    between atoms: _11  and  _12
REMARK    6  A    between atoms: _15  and  _17
REMARK    7  A    between atoms: _17  and  _18
REMARK    8  A    between atoms: _17  and  _20
REMARK    9  A    between atoms: _20  and  _21
REMARK   10  A    between atoms: _24  and  _26
REMARK   11  A    between atoms: _26  and  _27
REMARK   12  A    between atoms: _26  and  _29
REMARK   13  A    between atoms: _29  and  _30
REMARK   14  A    between atoms: _33  and  _35
REMARK   15  A    between atoms: _35  and  _36
REMARK   16  A    between atoms: _35  and  _38
REMARK   17  A    between atoms: _38  and  _39
REMARK   18  A    between atoms: _41  and  _43
REMARK   19  A    between atoms: _43  and  _44
REMARK   20  A    between atoms: _43  and  _46
REMARK   21  A    between atoms: _46  and  _47
REMARK   22  A    between atoms: _49  and  _51
REMARK   23  A    between atoms: _51  and  _52
REMARK   24  A    between atoms: _51  and  _54
REMARK   25  A    between atoms: _54  and  _55
REMARK   26  A    between atoms: _58  and  _60
REMARK   27  A    between atoms: _60  and  _61
REMARK   28  A    between atoms: _60  and  _63
REMARK   29  A    between atoms: _63  and  _64
REMARK   30  A    between atoms: _69  and  _71
REMARK   31  A    between atoms: _71  and  _72
REMARK   32  A    between atoms: _71  and  _74
REMARK   33  A    between atoms: _74  and  _75
REMARK   34  A    between atoms: _75  and  _76
REMARK   35  A    between atoms: _79  and  _81
REMARK   36  A    between atoms: _81  and  _82
REMARK   37  A    between atoms: _81  and  _84
REMARK   38  A    between atoms: _84  and  _85
REMARK   39  A    between atoms: _88  and  _90
REMARK   40  A    between atoms: _90  and  _91
REMARK   41  A    between atoms: _93  and  _95
REMARK   42  A    between atoms: _95  and  _96
REMARK   43  A    between atoms: _95  and  _98
REMARK   44  A    between atoms: _98  and  _99
REMARK   45  A    between atoms: _99  and  _100
REMARK   46  A    between atoms: _103  and  _105
REMARK   47  A    between atoms: _105  and  _106
REMARK   48  A    between atoms: _105  and  _108
REMARK   49  A    between atoms: _108  and  _109
REMARK   50  A    between atoms: _109  and  _110
REMARK   51  A    between atoms: _110  and  _111
REMARK   52  A    between atoms: _120  and  _122
REMARK   53  A    between atoms: _122  and  _123
REMARK   54  A    between atoms: _122  and  _125
REMARK   55  A    between atoms: _125  and  _126
REMARK   56  A    between atoms: _126  and  _127
REMARK   57  A    between atoms: _132  and  _134
REMARK   58  A    between atoms: _134  and  _135
REMARK   59  A    between atoms: _134  and  _137
REMARK   60  A    between atoms: _137  and  _138
REMARK   61  A    between atoms: _141  and  _143
REMARK   62  A    between atoms: _143  and  _144
REMARK   63  A    between atoms: _147  and  _149
REMARK   64  A    between atoms: _149  and  _150
REMARK   65  A    between atoms: _149  and  _152
REMARK   66  A    between atoms: _152  and  _153
REMARK   67  A    between atoms: _156  and  _158
REMARK   68  A    between atoms: _158  and  _159
REMARK   69  A    between atoms: _158  and  _161
REMARK   70  A    between atoms: _161  and  _162
REMARK   71  A    between atoms: _162  and  _163
REMARK   72  A    between atoms: _168  and  _170
REMARK   73  A    between atoms: _170  and  _171
REMARK   74  A    between atoms: _170  and  _173
REMARK   75  A    between atoms: _173  and  _174
REMARK   76  A    between atoms: _179  and  _180
REMARK   77  A    between atoms: _182  and  _184
REMARK   78  A    between atoms: _184  and  _185
REMARK   79  A    between atoms: _184  and  _187
REMARK   80  A    between atoms: _187  and  _188
REMARK   81  A    between atoms: _190  and  _192
REMARK   82  A    between atoms: _192  and  _193
REMARK   83  A    between atoms: _192  and  _195
REMARK   84  A    between atoms: _195  and  _196
REMARK   85  A    between atoms: _206  and  _208
REMARK   86  A    between atoms: _208  and  _209
REMARK   87  A    between atoms: _208  and  _211
REMARK   88  A    between atoms: _211  and  _212
REMARK   89  A    between atoms: _212  and  _213
REMARK   90  A    between atoms: _215  and  _217
REMARK   91  A    between atoms: _217  and  _218
REMARK   92  A    between atoms: _220  and  _222
REMARK   93  A    between atoms: _222  and  _223
REMARK   94  A    between atoms: _222  and  _225
REMARK   95  A    between atoms: _225  and  _226
REMARK   96  A    between atoms: _229  and  _231
REMARK   97  A    between atoms: _231  and  _232
REMARK   98  A    between atoms: _231  and  _234
REMARK   99  A    between atoms: _234  and  _235
REMARK  100  A    between atoms: _235  and  _236
REMARK  101  A    between atoms: _238  and  _240
REMARK  102  A    between atoms: _240  and  _241
REMARK  103  A    between atoms: _240  and  _243
REMARK  104  A    between atoms: _246  and  _248
REMARK  105  A    between atoms: _248  and  _249
REMARK  106  A    between atoms: _248  and  _251
REMARK  107  A    between atoms: _251  and  _252
REMARK  108  A    between atoms: _258  and  _260
REMARK  109  A    between atoms: _260  and  _261
REMARK  110  A    between atoms: _264  and  _266
REMARK  111  A    between atoms: _266  and  _267
REMARK  112  A    between atoms: _266  and  _269
REMARK  113  A    between atoms: _269  and  _270
REMARK  114  A    between atoms: _270  and  _271
REMARK  115  A    between atoms: _273  and  _275
REMARK  116  A    between atoms: _275  and  _276
REMARK  117  A    between atoms: _278  and  _280
REMARK  118  A    between atoms: _280  and  _281
REMARK  119  A    between atoms: _280  and  _283
REMARK  120  A    between atoms: _283  and  _284
REMARK  121  A    between atoms: _294  and  _296
REMARK  122  A    between atoms: _296  and  _297
REMARK  123  A    between atoms: _296  and  _299
REMARK  124  A    between atoms: _299  and  _300
REMARK  125  A    between atoms: _300  and  _301
REMARK  126  A    between atoms: _301  and  _302
REMARK  127  A    between atoms: _311  and  _313
REMARK  128  A    between atoms: _313  and  _314
REMARK  129  A    between atoms: _313  and  _316
REMARK  130  A    between atoms: _316  and  _317
REMARK  131  A    between atoms: _319  and  _321
REMARK  132  A    between atoms: _321  and  _322
REMARK  133  A    between atoms: _321  and  _324
REMARK  134  A    between atoms: _324  and  _325
REMARK  135  A    between atoms: _328  and  _330
REMARK  136  A    between atoms: _330  and  _331
REMARK  137  A    between atoms: _330  and  _333
REMARK  138  A    between atoms: _333  and  _334
REMARK  139  A    between atoms: _339  and  _340
REMARK  140  A    between atoms: _342  and  _344
REMARK  141  A    between atoms: _344  and  _345
REMARK  142  A    between atoms: _344  and  _347
REMARK  143  A    between atoms: _347  and  _348
REMARK  144  A    between atoms: _354  and  _356
REMARK  145  A    between atoms: _356  and  _357
REMARK  146  A    between atoms: _361  and  _362
REMARK  147  A    between atoms: _367  and  _369
REMARK  148  A    between atoms: _369  and  _370
REMARK  149  A    between atoms: _369  and  _372
REMARK  150  A    between atoms: _372  and  _373
REMARK  151  A    between atoms: _376  and  _378
REMARK  152  A    between atoms: _378  and  _379
REMARK  153  A    between atoms: _378  and  _381
REMARK  154  A    between atoms: _381  and  _382
REMARK  155  A    between atoms: _384  and  _386
REMARK  156  A    between atoms: _386  and  _387
REMARK  157  A    between atoms: _386  and  _389
REMARK  158  A    between atoms: _389  and  _390
REMARK  159  A    between atoms: _390  and  _391
REMARK  160  A    between atoms: _393  and  _395
REMARK  161  A    between atoms: _395  and  _396
REMARK  162  A    between atoms: _395  and  _398
REMARK  163  A    between atoms: _398  and  _399
REMARK  164  A    between atoms: _399  and  _400
REMARK  165  A    between atoms: _405  and  _407
REMARK  166  A    between atoms: _407  and  _408
REMARK  167  A    between atoms: _407  and  _410
REMARK  168  A    between atoms: _412  and  _414
REMARK  169  A    between atoms: _414  and  _415
REMARK  170  A    between atoms: _414  and  _417
REMARK  171  A    between atoms: _417  and  _418
REMARK  172  A    between atoms: _418  and  _419
REMARK  173  A    between atoms: _421  and  _423
REMARK  174  A    between atoms: _423  and  _424
REMARK  175  A    between atoms: _423  and  _426
REMARK  176  A    between atoms: _426  and  _427
REMARK  177  A    between atoms: _430  and  _432
REMARK  178  A    between atoms: _432  and  _433
REMARK  179  A    between atoms: _432  and  _435
REMARK  180  A    between atoms: _435  and  _436
REMARK  181  A    between atoms: _439  and  _441
REMARK  182  A    between atoms: _441  and  _442
REMARK  183  A    between atoms: _441  and  _444
REMARK  184  A    between atoms: _447  and  _449
REMARK  185  A    between atoms: _449  and  _450
REMARK  186  A    between atoms: _449  and  _452
REMARK  187  A    between atoms: _452  and  _453
REMARK  188  A    between atoms: _456  and  _458
REMARK  189  A    between atoms: _458  and  _459
REMARK  190  A    between atoms: _462  and  _464
REMARK  191  A    between atoms: _464  and  _465
REMARK  192  A    between atoms: _464  and  _467
REMARK  193  A    between atoms: _467  and  _468
REMARK  194  A    between atoms: _471  and  _473
REMARK  195  A    between atoms: _473  and  _474
REMARK  196  A    between atoms: _473  and  _476
REMARK  197  A    between atoms: _476  and  _477
REMARK  198  A    between atoms: _482  and  _484
REMARK  199  A    between atoms: _484  and  _485
REMARK  200  A    between atoms: _484  and  _487
REMARK  201  A    between atoms: _487  and  _488
REMARK  202  A    between atoms: _494  and  _496
REMARK  203  A    between atoms: _496  and  _497
REMARK  204  A    between atoms: _496  and  _499
REMARK  205  A    between atoms: _499  and  _500
REMARK  206  A    between atoms: _503  and  _505
REMARK  207  A    between atoms: _505  and  _506
REMARK  208  A    between atoms: _505  and  _508
REMARK  209  A    between atoms: _508  and  _509
REMARK  210  A    between atoms: _515  and  _517
REMARK  211  A    between atoms: _517  and  _518
REMARK  212  A    between atoms: _517  and  _520
REMARK  213  A    between atoms: _520  and  _521
REMARK  214  A    between atoms: _524  and  _526
REMARK  215  A    between atoms: _526  and  _527
REMARK  216  A    between atoms: _526  and  _529
REMARK  217  A    between atoms: _529  and  _530
REMARK  218  A    between atoms: _533  and  _535
REMARK  219  A    between atoms: _535  and  _536
REMARK  220  A    between atoms: _535  and  _538
REMARK  221  A    between atoms: _541  and  _543
REMARK  222  A    between atoms: _543  and  _544
REMARK  223  A    between atoms: _543  and  _546
REMARK  224  A    between atoms: _546  and  _547
REMARK  225  A    between atoms: _550  and  _552
REMARK  226  A    between atoms: _552  and  _553
REMARK  227  A    between atoms: _552  and  _555
REMARK  228  A    between atoms: _555  and  _556
REMARK  229  A    between atoms: _563  and  _564
REMARK  230  A    between atoms: _569  and  _571
REMARK  231  A    between atoms: _571  and  _572
REMARK  232  A    between atoms: _571  and  _574
REMARK  233  A    between atoms: _574  and  _575
REMARK  234  A    between atoms: _575  and  _576
REMARK  235  A    between atoms: _578  and  _580
REMARK  236  A    between atoms: _580  and  _581
REMARK  237  A    between atoms: _580  and  _583
REMARK  238  A    between atoms: _583  and  _584
REMARK  239  A    between atoms: _584  and  _585
REMARK  240  A    between atoms: _587  and  _589
REMARK  241  A    between atoms: _589  and  _590
REMARK  242  A    between atoms: _593  and  _595
REMARK  243  A    between atoms: _595  and  _596
REMARK  244  A    between atoms: _595  and  _598
REMARK  245  A    between atoms: _598  and  _599
REMARK  246  A    between atoms: _599  and  _600
REMARK  247  A    between atoms: _603  and  _605
REMARK  248  A    between atoms: _605  and  _606
REMARK  249  A    between atoms: _605  and  _608
REMARK  250  A    between atoms: _608  and  _609
REMARK  251  A    between atoms: _612  and  _614
REMARK  252  A    between atoms: _614  and  _615
REMARK  253  A    between atoms: _614  and  _617
REMARK  254  A    between atoms: _617  and  _618
REMARK  255  A    between atoms: _621  and  _623
REMARK  256  A    between atoms: _623  and  _624
REMARK  257  A    between atoms: _623  and  _626
REMARK  258  A    between atoms: _626  and  _627
REMARK  259  A    between atoms: _629  and  _631
REMARK  260  A    between atoms: _631  and  _632
REMARK  261  A    between atoms: _631  and  _634
REMARK  262  A    between atoms: _637  and  _639
REMARK  263  A    between atoms: _639  and  _640
REMARK  264  A    between atoms: _639  and  _642
REMARK  265  A    between atoms: _642  and  _643
REMARK  266  A    between atoms: _643  and  _644
REMARK  267  A    between atoms: _649  and  _651
REMARK  268  A    between atoms: _651  and  _652
REMARK  269  A    between atoms: _651  and  _654
REMARK  270  A    between atoms: _658  and  _659
REMARK  271  A    between atoms: _664  and  _666
REMARK  272  A    between atoms: _666  and  _667
REMARK  273  A    between atoms: _666  and  _669
REMARK  274  A    between atoms: _669  and  _670
REMARK  275  A    between atoms: _670  and  _671
REMARK  276  A    between atoms: _671  and  _672
REMARK  277  A    between atoms: _672  and  _673
REMARK  278  A    between atoms: _677  and  _679
REMARK  279  A    between atoms: _679  and  _680
REMARK  280  A    between atoms: _679  and  _682
REMARK  281  A    between atoms: _682  and  _683
REMARK  282  A    between atoms: _686  and  _688
REMARK  283  A    between atoms: _688  and  _689
REMARK  284  A    between atoms: _688  and  _691
REMARK                            x       y       z     vdW  Elec       q    Type
REMARK                         _______ _______ _______ _____ _____    ______ ____
ROOT
ATOM      1  CA  VAL A   1      28.746  15.435   2.465  0.00  0.00    +0.133 C 
ENDROOT
BRANCH   1   2
ATOM      2  CB  VAL A   1      28.740  14.500   3.694  0.00  0.00    +0.023 C 
ATOM      3  CG2 VAL A   1      28.582  15.317   4.961  0.00  0.00    +0.002 C 
ATOM      4  CG1 VAL A   1      30.029  13.718   3.759  0.00  0.00    +0.002 C 
ENDBRANCH   1   2
BRANCH   1   5
ATOM      5  N   VAL A   1      27.494  16.157   2.344  0.00  0.00    -0.239 NA
ATOM      6  H   VAL A   1      26.620  15.629   2.148  0.00  0.00    +0.142 HD
ENDBRANCH   1   5
BRANCH   1   7
ATOM      7  C   VAL A   1      28.894  14.634   1.176  0.00  0.00    +0.224 C 
ATOM      8  O   VAL A   1      28.004  13.875   0.796  0.00  0.00    -0.287 OA
ENDBRANCH   1   7
TORSDOF 3
REMARK  Name = ../refined-set-2016/3b68/3b68_pocket.pdb
REMARK  284 active torsions:
REMARK  status: ('A' for Active; 'I' for Inactive)
REMARK    1  A    between atoms: _1  and  _3
REMARK    2  A    between atoms: _3  and  _4
REMARK    3  A    between atoms: _3  and  _6
REMARK    4  A    between atoms: _9  and  _11
REMARK    5  A    between atoms: _11  and  _12
REMARK    6  A    between atoms: _15  and  _17
REMARK    7  A    between atoms: _17  and  _18
REMARK    8  A    between atoms: _17  and  _20
REMARK    9  A    between atoms: _20  and  _21
REMARK   10  A    between atoms: _24  and  _26
REMARK   11  A    between atoms: _26  and  _27
REMARK   12  A    between atoms: _26  and  _29
REMARK   13  A    between atoms: _29  and  _30
REMARK   14  A    between atoms: _33  and  _35
REMARK   15  A    between atoms: _35  and  _36
REMARK   16  A    between atoms: _35  and  _38
REMARK   17  A    between atoms: _38  and  _39
REMARK   18  A    between atoms: _41  and  _43
REMARK   19  A    between atoms: _43  and  _44
REMARK   20  A    between atoms: _43  and  _46
REMARK   21  A    between atoms: _46  and  _47
REMARK   22  A    between atoms: _49  and  _51
REMARK   23  A    between atoms: _51  and  _52
REMARK   24  A    between atoms: _51  and  _54
REMARK   25  A    between atoms: _54  and  _55
REMARK   26  A    between atoms: _58  and  _60
REMARK   27  A    between atoms: _60  and  _61
REMARK   28  A    between atoms: _60  and  _63
REMARK   29  A    between atoms: _63  and  _64
REMARK   30  A    between atoms: _69  and  _71
REMARK   31  A    between atoms: _71  and  _72
REMARK   32  A    between atoms: _71  and  _74
REMARK   33  A    between atoms: _74  and  _75
REMARK   34  A    between atoms: _75  and  _76
REMARK   35  A    between atoms: _79  and  _81
REMARK   36  A    between atoms: _81  and  _82
REMARK   37  A    between atoms: _81  and  _84
REMARK   38  A    between atoms: _84  and  _85
REMARK   39  A    between atoms: _88  and  _90
REMARK   40  A    between atoms: _90  and  _91
REMARK   41  A    between atoms: _93  and  _95
REMARK   42  A    between atoms: _95  and  _96
REMARK   43  A    between atoms: _95  and  _98
REMARK   44  A    between atoms: _98  and  _99
REMARK   45  A    between atoms: _99  and  _100
REMARK   46  A    between atoms: _103  and  _105
REMARK   47  A    between atoms: _105  and  _106
REMARK   48  A    between atoms: _105  and  _108
REMARK   49  A    between atoms: _108  and  _109
REMARK   50  A    between atoms: _109  and  _110
REMARK   51  A    between atoms: _110  and  _111
REMARK   52  A    between atoms: _120  and  _122
REMARK   53  A    between atoms: _122  and  _123
REMARK   54  A    between atoms: _122  and  _125
REMARK   55  A    between atoms: _125  and  _126
REMARK   56  A    between atoms: _126  and  _127
REMARK   57  A    between atoms: _132  and  _134
REMARK   58  A    between atoms: _134  and  _135
REMARK   59  A    between atoms: _134  and  _137
REMARK   60  A    between atoms: _137  and  _138
REMARK   61  A    between atoms: _141  and  _143
REMARK   62  A    between atoms: _143  and  _144
REMARK   63  A    between atoms: _147  and  _149
REMARK   64  A    between atoms: _149  and  _150
REMARK   65  A    between atoms: _149  and  _152
REMARK   66  A    between atoms: _152  and  _153
REMARK   67  A    between atoms: _156  and  _158
REMARK   68  A    between atoms: _158  and  _159
REMARK   69  A    between atoms: _158  and  _161
REMARK   70  A    between atoms: _161  and  _162
REMARK   71  A    between atoms: _162  and  _163
REMARK   72  A    between atoms: _168  and  _170
REMARK   73  A    between atoms: _170  and  _171
REMARK   74  A    between atoms: _170  and  _173
REMARK   75  A    between atoms: _173  and  _174
REMARK   76  A    between atoms: _179  and  _180
REMARK   77  A    between atoms: _182  and  _184
REMARK   78  A    between atoms: _184  and  _185
REMARK   79  A    between atoms: _184  and  _187
REMARK   80  A    between atoms: _187  and  _188
REMARK   81  A    between atoms: _190  and  _192
REMARK   82  A    between atoms: _192  and  _193
REMARK   83  A    between atoms: _192  and  _195
REMARK   84  A    between atoms: _195  and  _196
REMARK   85  A    between atoms: _206  and  _208
REMARK   86  A    between atoms: _208  and  _209
REMARK   87  A    between atoms: _208  and  _211
REMARK   88  A    between atoms: _211  and  _212
REMARK   89  A    between atoms: _212  and  _213
REMARK   90  A    between atoms: _215  and  _217
REMARK   91  A    between atoms: _217  and  _218
REMARK   92  A    between atoms: _220  and  _222
REMARK   93  A    between atoms: _222  and  _223
REMARK   94  A    between atoms: _222  and  _225
REMARK   95  A    between atoms: _225  and  _226
REMARK   96  A    between atoms: _229  and  _231
REMARK   97  A    between atoms: _231  and  _232
REMARK   98  A    between atoms: _231  and  _234
REMARK   99  A    between atoms: _234  and  _235
REMARK  100  A    between atoms: _235  and  _236
REMARK  101  A    between atoms: _238  and  _240
REMARK  102  A    between atoms: _240  and  _241
REMARK  103  A    between atoms: _240  and  _243
REMARK  104  A    between atoms: _246  and  _248
REMARK  105  A    between atoms: _248  and  _249
REMARK  106  A    between atoms: _248  and  _251
REMARK  107  A    between atoms: _251  and  _252
REMARK  108  A    between atoms: _258  and  _260
REMARK  109  A    between atoms: _260  and  _261
REMARK  110  A    between atoms: _264  and  _266
REMARK  111  A    between atoms: _266  and  _267
REMARK  112  A    between atoms: _266  and  _269
REMARK  113  A    between atoms: _269  and  _270
REMARK  114  A    between atoms: _270  and  _271
REMARK  115  A    between atoms: _273  and  _275
REMARK  116  A    between atoms: _275  and  _276
REMARK  117  A    between atoms: _278  and  _280
REMARK  118  A    between atoms: _280  and  _281
REMARK  119  A    between atoms: _280  and  _283
REMARK  120  A    between atoms: _283  and  _284
REMARK  121  A    between atoms: _294  and  _296
REMARK  122  A    between atoms: _296  and  _297
REMARK  123  A    between atoms: _296  and  _299
REMARK  124  A    between atoms: _299  and  _300
REMARK  125  A    between atoms: _300  and  _301
REMARK  126  A    between atoms: _301  and  _302
REMARK  127  A    between atoms: _311  and  _313
REMARK  128  A    between atoms: _313  and  _314
REMARK  129  A    between atoms: _313  and  _316
REMARK  130  A    between atoms: _316  and  _317
REMARK  131  A    between atoms: _319  and  _321
REMARK  132  A    between atoms: _321  and  _322
REMARK  133  A    between atoms: _321  and  _324
REMARK  134  A    between atoms: _324  and  _325
REMARK  135  A    between atoms: _328  and  _330
REMARK  136  A    between atoms: _330  and  _331
REMARK  137  A    between atoms: _330  and  _333
REMARK  138  A    between atoms: _333  and  _334
REMARK  139  A    between atoms: _339  and  _340
REMARK  140  A    between atoms: _342  and  _344
REMARK  141  A    between atoms: _344  and  _345
REMARK  142  A    between atoms: _344  and  _347
REMARK  143  A    between atoms: _347  and  _348
REMARK  144  A    between atoms: _354  and  _356
REMARK  145  A    between atoms: _356  and  _357
REMARK  146  A    between atoms: _361  and  _362
REMARK  147  A    between atoms: _367  and  _369
REMARK  148  A    between atoms: _369  and  _370
REMARK  149  A    between atoms: _369  and  _372
REMARK  150  A    between atoms: _372  and  _373
REMARK  151  A    between atoms: _376  and  _378
REMARK  152  A    between atoms: _378  and  _379
REMARK  153  A    between atoms: _378  and  _381
REMARK  154  A    between atoms: _381  and  _382
REMARK  155  A    between atoms: _384  and  _386
REMARK  156  A    between atoms: _386  and  _387
REMARK  157  A    between atoms: _386  and  _389
REMARK  158  A    between atoms: _389  and  _390
REMARK  159  A    between atoms: _390  and  _391
REMARK  160  A    between atoms: _393  and  _395
REMARK  161  A    between atoms: _395  and  _396
REMARK  162  A    between atoms: _395  and  _398
REMARK  163  A    between atoms: _398  and  _399
REMARK  164  A    between atoms: _399  and  _400
REMARK  165  A    between atoms: _405  and  _407
REMARK  166  A    between atoms: _407  and  _408
REMARK  167  A    between atoms: _407  and  _410
REMARK  168  A    between atoms: _412  and  _414
REMARK  169  A    between atoms: _414  and  _415
REMARK  170  A    between atoms: _414  and  _417
REMARK  171  A    between atoms: _417  and  _418
REMARK  172  A    between atoms: _418  and  _419
REMARK  173  A    between atoms: _421  and  _423
REMARK  174  A    between atoms: _423  and  _424
REMARK  175  A    between atoms: _423  and  _426
REMARK  176  A    between atoms: _426  and  _427
REMARK  177  A    between atoms: _430  and  _432
REMARK  178  A    between atoms: _432  and  _433
REMARK  179  A    between atoms: _432  and  _435
REMARK  180  A    between atoms: _435  and  _436
REMARK  181  A    between atoms: _439  and  _441
REMARK  182  A    between atoms: _441  and  _442
REMARK  183  A    between atoms: _441  and  _444
REMARK  184  A    between atoms: _447  and  _449
REMARK  185  A    between atoms: _449  and  _450
REMARK  186  A    between atoms: _449  and  _452
REMARK  187  A    between atoms: _452  and  _453
REMARK  188  A    between atoms: _456  and  _458
REMARK  189  A    between atoms: _458  and  _459
REMARK  190  A    between atoms: _462  and  _464
REMARK  191  A    between atoms: _464  and  _465
REMARK  192  A    between atoms: _464  and  _467
REMARK  193  A    between atoms: _467  and  _468
REMARK  194  A    between atoms: _471  and  _473
REMARK  195  A    between atoms: _473  and  _474
REMARK  196  A    between atoms: _473  and  _476
REMARK  197  A    between atoms: _476  and  _477
REMARK  198  A    between atoms: _482  and  _484
REMARK  199  A    between atoms: _484  and  _485
REMARK  200  A    between atoms: _484  and  _487
REMARK  201  A    between atoms: _487  and  _488
REMARK  202  A    between atoms: _494  and  _496
REMARK  203  A    between atoms: _496  and  _497
REMARK  204  A    between atoms: _496  and  _499
REMARK  205  A    between atoms: _499  and  _500
REMARK  206  A    between atoms: _503  and  _505
REMARK  207  A    between atoms: _505  and  _506
REMARK  208  A    between atoms: _505  and  _508
REMARK  209  A    between atoms: _508  and  _509
REMARK  210  A    between atoms: _515  and  _517
REMARK  211  A    between atoms: _517  and  _518
REMARK  212  A    between atoms: _517  and  _520
REMARK  213  A    between atoms: _520  and  _521
REMARK  214  A    between atoms: _524  and  _526
REMARK  215  A    between atoms: _526  and  _527
REMARK  216  A    between atoms: _526  and  _529
REMARK  217  A    between atoms: _529  and  _530
REMARK  218  A    between atoms: _533  and  _535
REMARK  219  A    between atoms: _535  and  _536
REMARK  220  A    between atoms: _535  and  _538
REMARK  221  A    between atoms: _541  and  _543
REMARK  222  A    between atoms: _543  and  _544
REMARK  223  A    between atoms: _543  and  _546
REMARK  224  A    between atoms: _546  and  _547
REMARK  225  A    between atoms: _550  and  _552
REMARK  226  A    between atoms: _552  and  _553
REMARK  227  A    between atoms: _552  and  _555
REMARK  228  A    between atoms: _555  and  _556
REMARK  229  A    between atoms: _563  and  _564
REMARK  230  A    between atoms: _569  and  _571
REMARK  231  A    between atoms: _571  and  _572
REMARK  232  A    between atoms: _571  and  _574
REMARK  233  A    between atoms: _574  and  _575
REMARK  234  A    between atoms: _575  and  _576
REMARK  235  A    between atoms: _578  and  _580
REMARK  236  A    between atoms: _580  and  _581
REMARK  237  A    between atoms: _580  and  _583
REMARK  238  A    between atoms: _583  and  _584
REMARK  239  A    between atoms: _584  and  _585
REMARK  240  A    between atoms: _587  and  _589
REMARK  241  A    between atoms: _589  and  _590
REMARK  242  A    between atoms: _593  and  _595
REMARK  243  A    between atoms: _595  and  _596
REMARK  244  A    between atoms: _595  and  _598
REMARK  245  A    between atoms: _598  and  _599
REMARK  246  A    between atoms: _599  and  _600
REMARK  247  A    between atoms: _603  and  _605
REMARK  248  A    between atoms: _605  and  _606
REMARK  249  A    between atoms: _605  and  _608
REMARK  250  A    between atoms: _608  and  _609
REMARK  251  A    between atoms: _612  and  _614
REMARK  252  A    between atoms: _614  and  _615
REMARK  253  A    between atoms: _614  and  _617
REMARK  254  A    between atoms: _617  and  _618
REMARK  255  A    between atoms: _621  and  _623
REMARK  256  A    between atoms: _623  and  _624
REMARK  257  A    between atoms: _623  and  _626
REMARK  258  A    between atoms: _626  and  _627
REMARK  259  A    between atoms: _629  and  _631
REMARK  260  A    between atoms: _631  and  _632
REMARK  261  A    between atoms: _631  and  _634
REMARK  262  A    between atoms: _637  and  _639
REMARK  263  A    between atoms: _639  and  _640
REMARK  264  A    between atoms: _639  and  _642
REMARK  265  A    between atoms: _642  and  _643
REMARK  266  A    between atoms: _643  and  _644
REMARK  267  A    between atoms: _649  and  _651
REMARK  268  A    between atoms: _651  and  _652
REMARK  269  A    between atoms: _651  and  _654
REMARK  270  A    between atoms: _658  and  _659
REMARK  271  A    between atoms: _664  and  _666
REMARK  272  A    between atoms: _666  and  _667
REMARK  273  A    between atoms: _666  and  _669
REMARK  274  A    between atoms: _669  and  _670
REMARK  275  A    between atoms: _670  and  _671
REMARK  276  A    between atoms: _671  and  _672
REMARK  277  A    between atoms: _672  and  _673
REMARK  278  A    between atoms: _677  and  _679
REMARK  279  A    between atoms: _679  and  _680
REMARK  280  A    between atoms: _679  and  _682
REMARK  281  A    between atoms: _682  and  _683
REMARK  282  A    between atoms: _686  and  _688
REMARK  283  A    between atoms: _688  and  _689
REMARK  284  A    between atoms: _688  and  _691
REMARK                            x       y       z     vdW  Elec       q    Type
REMARK                         _______ _______ _______ _____ _____    ______ ____
ROOT
ATOM      1  CA  ALA A   1      31.804  10.698  -1.273  0.00  0.00    +0.133 C 
ATOM      2  CB  ALA A   1      31.029   9.516  -1.845  0.00  0.00    +0.027 C 
ENDROOT
BRANCH   1   3
ATOM      3  N   ALA A   1      30.996  11.910  -1.361  0.00  0.00    -0.239 NA
ATOM      4  H   ALA A   1      30.243  11.962  -2.077  0.00  0.00    +0.142 HD
ENDBRANCH   1   3
BRANCH   1   5
ATOM      5  C   ALA A   1      33.158  10.799  -1.966  0.00  0.00    +0.224 C 
ATOM      6  O   ALA A   1      34.081  10.067  -1.625  0.00  0.00    -0.287 OA
ENDBRANCH   1   5
TORSDOF 2
REMARK  Name = ../refined-set-2016/3b68/3b68_pocket.pdb
REMARK  284 active torsions:
REMARK  status: ('A' for Active; 'I' for Inactive)
REMARK    1  A    between atoms: _1  and  _3
REMARK    2  A    between atoms: _3  and  _4
REMARK    3  A    between atoms: _3  and  _6
REMARK    4  A    between atoms: _9  and  _11
REMARK    5  A    between atoms: _11  and  _12
REMARK    6  A    between atoms: _15  and  _17
REMARK    7  A    between atoms: _17  and  _18
REMARK    8  A    between atoms: _17  and  _20
REMARK    9  A    between atoms: _20  and  _21
REMARK   10  A    between atoms: _24  and  _26
REMARK   11  A    between atoms: _26  and  _27
REMARK   12  A    between atoms: _26  and  _29
REMARK   13  A    between atoms: _29  and  _30
REMARK   14  A    between atoms: _33  and  _35
REMARK   15  A    between atoms: _35  and  _36
REMARK   16  A    between atoms: _35  and  _38
REMARK   17  A    between atoms: _38  and  _39
REMARK   18  A    between atoms: _41  and  _43
REMARK   19  A    between atoms: _43  and  _44
REMARK   20  A    between atoms: _43  and  _46
REMARK   21  A    between atoms: _46  and  _47
REMARK   22  A    between atoms: _49  and  _51
REMARK   23  A    between atoms: _51  and  _52
REMARK   24  A    between atoms: _51  and  _54
REMARK   25  A    between atoms: _54  and  _55
REMARK   26  A    between atoms: _58  and  _60
REMARK   27  A    between atoms: _60  and  _61
REMARK   28  A    between atoms: _60  and  _63
REMARK   29  A    between atoms: _63  and  _64
REMARK   30  A    between atoms: _69  and  _71
REMARK   31  A    between atoms: _71  and  _72
REMARK   32  A    between atoms: _71  and  _74
REMARK   33  A    between atoms: _74  and  _75
REMARK   34  A    between atoms: _75  and  _76
REMARK   35  A    between atoms: _79  and  _81
REMARK   36  A    between atoms: _81  and  _82
REMARK   37  A    between atoms: _81  and  _84
REMARK   38  A    between atoms: _84  and  _85
REMARK   39  A    between atoms: _88  and  _90
REMARK   40  A    between atoms: _90  and  _91
REMARK   41  A    between atoms: _93  and  _95
REMARK   42  A    between atoms: _95  and  _96
REMARK   43  A    between atoms: _95  and  _98
REMARK   44  A    between atoms: _98  and  _99
REMARK   45  A    between atoms: _99  and  _100
REMARK   46  A    between atoms: _103  and  _105
REMARK   47  A    between atoms: _105  and  _106
REMARK   48  A    between atoms: _105  and  _108
REMARK   49  A    between atoms: _108  and  _109
REMARK   50  A    between atoms: _109  and  _110
REMARK   51  A    between atoms: _110  and  _111
REMARK   52  A    between atoms: _120  and  _122
REMARK   53  A    between atoms: _122  and  _123
REMARK   54  A    between atoms: _122  and  _125
REMARK   55  A    between atoms: _125  and  _126
REMARK   56  A    between atoms: _126  and  _127
REMARK   57  A    between atoms: _132  and  _134
REMARK   58  A    between atoms: _134  and  _135
REMARK   59  A    between atoms: _134  and  _137
REMARK   60  A    between atoms: _137  and  _138
REMARK   61  A    between atoms: _141  and  _143
REMARK   62  A    between atoms: _143  and  _144
REMARK   63  A    between atoms: _147  and  _149
REMARK   64  A    between atoms: _149  and  _150
REMARK   65  A    between atoms: _149  and  _152
REMARK   66  A    between atoms: _152  and  _153
REMARK   67  A    between atoms: _156  and  _158
REMARK   68  A    between atoms: _158  and  _159
REMARK   69  A    between atoms: _158  and  _161
REMARK   70  A    between atoms: _161  and  _162
REMARK   71  A    between atoms: _162  and  _163
REMARK   72  A    between atoms: _168  and  _170
REMARK   73  A    between atoms: _170  and  _171
REMARK   74  A    between atoms: _170  and  _173
REMARK   75  A    between atoms: _173  and  _174
REMARK   76  A    between atoms: _179  and  _180
REMARK   77  A    between atoms: _182  and  _184
REMARK   78  A    between atoms: _184  and  _185
REMARK   79  A    between atoms: _184  and  _187
REMARK   80  A    between atoms: _187  and  _188
REMARK   81  A    between atoms: _190  and  _192
REMARK   82  A    between atoms: _192  and  _193
REMARK   83  A    between atoms: _192  and  _195
REMARK   84  A    between atoms: _195  and  _196
REMARK   85  A    between atoms: _206  and  _208
REMARK   86  A    between atoms: _208  and  _209
REMARK   87  A    between atoms: _208  and  _211
REMARK   88  A    between atoms: _211  and  _212
REMARK   89  A    between atoms: _212  and  _213
REMARK   90  A    between atoms: _215  and  _217
REMARK   91  A    between atoms: _217  and  _218
REMARK   92  A    between atoms: _220  and  _222
REMARK   93  A    between atoms: _222  and  _223
REMARK   94  A    between atoms: _222  and  _225
REMARK   95  A    between atoms: _225  and  _226
REMARK   96  A    between atoms: _229  and  _231
REMARK   97  A    between atoms: _231  and  _232
REMARK   98  A    between atoms: _231  and  _234
REMARK   99  A    between atoms: _234  and  _235
REMARK  100  A    between atoms: _235  and  _236
REMARK  101  A    between atoms: _238  and  _240
REMARK  102  A    between atoms: _240  and  _241
REMARK  103  A    between atoms: _240  and  _243
REMARK  104  A    between atoms: _246  and  _248
REMARK  105  A    between atoms: _248  and  _249
REMARK  106  A    between atoms: _248  and  _251
REMARK  107  A    between atoms: _251  and  _252
REMARK  108  A    between atoms: _258  and  _260
REMARK  109  A    between atoms: _260  and  _261
REMARK  110  A    between atoms: _264  and  _266
REMARK  111  A    between atoms: _266  and  _267
REMARK  112  A    between atoms: _266  and  _269
REMARK  113  A    between atoms: _269  and  _270
REMARK  114  A    between atoms: _270  and  _271
REMARK  115  A    between atoms: _273  and  _275
REMARK  116  A    between atoms: _275  and  _276
REMARK  117  A    between atoms: _278  and  _280
REMARK  118  A    between atoms: _280  and  _281
REMARK  119  A    between atoms: _280  and  _283
REMARK  120  A    between atoms: _283  and  _284
REMARK  121  A    between atoms: _294  and  _296
REMARK  122  A    between atoms: _296  and  _297
REMARK  123  A    between atoms: _296  and  _299
REMARK  124  A    between atoms: _299  and  _300
REMARK  125  A    between atoms: _300  and  _301
REMARK  126  A    between atoms: _301  and  _302
REMARK  127  A    between atoms: _311  and  _313
REMARK  128  A    between atoms: _313  and  _314
REMARK  129  A    between atoms: _313  and  _316
REMARK  130  A    between atoms: _316  and  _317
REMARK  131  A    between atoms: _319  and  _321
REMARK  132  A    between atoms: _321  and  _322
REMARK  133  A    between atoms: _321  and  _324
REMARK  134  A    between atoms: _324  and  _325
REMARK  135  A    between atoms: _328  and  _330
REMARK  136  A    between atoms: _330  and  _331
REMARK  137  A    between atoms: _330  and  _333
REMARK  138  A    between atoms: _333  and  _334
REMARK  139  A    between atoms: _339  and  _340
REMARK  140  A    between atoms: _342  and  _344
REMARK  141  A    between atoms: _344  and  _345
REMARK  142  A    between atoms: _344  and  _347
REMARK  143  A    between atoms: _347  and  _348
REMARK  144  A    between atoms: _354  and  _356
REMARK  145  A    between atoms: _356  and  _357
REMARK  146  A    between atoms: _361  and  _362
REMARK  147  A    between atoms: _367  and  _369
REMARK  148  A    between atoms: _369  and  _370
REMARK  149  A    between atoms: _369  and  _372
REMARK  150  A    between atoms: _372  and  _373
REMARK  151  A    between atoms: _376  and  _378
REMARK  152  A    between atoms: _378  and  _379
REMARK  153  A    between atoms: _378  and  _381
REMARK  154  A    between atoms: _381  and  _382
REMARK  155  A    between atoms: _384  and  _386
REMARK  156  A    between atoms: _386  and  _387
REMARK  157  A    between atoms: _386  and  _389
REMARK  158  A    between atoms: _389  and  _390
REMARK  159  A    between atoms: _390  and  _391
REMARK  160  A    between atoms: _393  and  _395
REMARK  161  A    between atoms: _395  and  _396
REMARK  162  A    between atoms: _395  and  _398
REMARK  163  A    between atoms: _398  and  _399
REMARK  164  A    between atoms: _399  and  _400
REMARK  165  A    between atoms: _405  and  _407
REMARK  166  A    between atoms: _407  and  _408
REMARK  167  A    between atoms: _407  and  _410
REMARK  168  A    between atoms: _412  and  _414
REMARK  169  A    between atoms: _414  and  _415
REMARK  170  A    between atoms: _414  and  _417
REMARK  171  A    between atoms: _417  and  _418
REMARK  172  A    between atoms: _418  and  _419
REMARK  173  A    between atoms: _421  and  _423
REMARK  174  A    between atoms: _423  and  _424
REMARK  175  A    between atoms: _423  and  _426
REMARK  176  A    between atoms: _426  and  _427
REMARK  177  A    between atoms: _430  and  _432
REMARK  178  A    between atoms: _432  and  _433
REMARK  179  A    between atoms: _432  and  _435
REMARK  180  A    between atoms: _435  and  _436
REMARK  181  A    between atoms: _439  and  _441
REMARK  182  A    between atoms: _441  and  _442
REMARK  183  A    between atoms: _441  and  _444
REMARK  184  A    between atoms: _447  and  _449
REMARK  185  A    between atoms: _449  and  _450
REMARK  186  A    between atoms: _449  and  _452
REMARK  187  A    between atoms: _452  and  _453
REMARK  188  A    between atoms: _456  and  _458
REMARK  189  A    between atoms: _458  and  _459
REMARK  190  A    between atoms: _462  and  _464
REMARK  191  A    between atoms: _464  and  _465
REMARK  192  A    between atoms: _464  and  _467
REMARK  193  A    between atoms: _467  and  _468
REMARK  194  A    between atoms: _471  and  _473
REMARK  195  A    between atoms: _473  and  _474
REMARK  196  A    between atoms: _473  and  _476
REMARK  197  A    between atoms: _476  and  _477
REMARK  198  A    between atoms: _482  and  _484
REMARK  199  A    between atoms: _484  and  _485
REMARK  200  A    between atoms: _484  and  _487
REMARK  201  A    between atoms: _487  and  _488
REMARK  202  A    between atoms: _494  and  _496
REMARK  203  A    between atoms: _496  and  _497
REMARK  204  A    between atoms: _496  and  _499
REMARK  205  A    between atoms: _499  and  _500
REMARK  206  A    between atoms: _503  and  _505
REMARK  207  A    between atoms: _505  and  _506
REMARK  208  A    between atoms: _505  and  _508
REMARK  209  A    between atoms: _508  and  _509
REMARK  210  A    between atoms: _515  and  _517
REMARK  211  A    between atoms: _517  and  _518
REMARK  212  A    between atoms: _517  and  _520
REMARK  213  A    between atoms: _520  and  _521
REMARK  214  A    between atoms: _524  and  _526
REMARK  215  A    between atoms: _526  and  _527
REMARK  216  A    between atoms: _526  and  _529
REMARK  217  A    between atoms: _529  and  _530
REMARK  218  A    between atoms: _533  and  _535
REMARK  219  A    between atoms: _535  and  _536
REMARK  220  A    between atoms: _535  and  _538
REMARK  221  A    between atoms: _541  and  _543
REMARK  222  A    between atoms: _543  and  _544
REMARK  223  A    between atoms: _543  and  _546
REMARK  224  A    between atoms: _546  and  _547
REMARK  225  A    between atoms: _550  and  _552
REMARK  226  A    between atoms: _552  and  _553
REMARK  227  A    between atoms: _552  and  _555
REMARK  228  A    between atoms: _555  and  _556
REMARK  229  A    between atoms: _563  and  _564
REMARK  230  A    between atoms: _569  and  _571
REMARK  231  A    between atoms: _571  and  _572
REMARK  232  A    between atoms: _571  and  _574
REMARK  233  A    between atoms: _574  and  _575
REMARK  234  A    between atoms: _575  and  _576
REMARK  235  A    between atoms: _578  and  _580
REMARK  236  A    between atoms: _580  and  _581
REMARK  237  A    between atoms: _580  and  _583
REMARK  238  A    between atoms: _583  and  _584
REMARK  239  A    between atoms: _584  and  _585
REMARK  240  A    between atoms: _587  and  _589
REMARK  241  A    between atoms: _589  and  _590
REMARK  242  A    between atoms: _593  and  _595
REMARK  243  A    between atoms: _595  and  _596
REMARK  244  A    between atoms: _595  and  _598
REMARK  245  A    between atoms: _598  and  _599
REMARK  246  A    between atoms: _599  and  _600
REMARK  247  A    between atoms: _603  and  _605
REMARK  248  A    between atoms: _605  and  _606
REMARK  249  A    between atoms: _605  and  _608
REMARK  250  A    between atoms: _608  and  _609
REMARK  251  A    between atoms: _612  and  _614
REMARK  252  A    between atoms: _614  and  _615
REMARK  253  A    between atoms: _614  and  _617
REMARK  254  A    between atoms: _617  and  _618
REMARK  255  A    between atoms: _621  and  _623
REMARK  256  A    between atoms: _623  and  _624
REMARK  257  A    between atoms: _623  and  _626
REMARK  258  A    between atoms: _626  and  _627
REMARK  259  A    between atoms: _629  and  _631
REMARK  260  A    between atoms: _631  and  _632
REMARK  261  A    between atoms: _631  and  _634
REMARK  262  A    between atoms: _637  and  _639
REMARK  263  A    between atoms: _639  and  _640
REMARK  264  A    between atoms: _639  and  _642
REMARK  265  A    between atoms: _642  and  _643
REMARK  266  A    between atoms: _643  and  _644
REMARK  267  A    between atoms: _649  and  _651
REMARK  268  A    between atoms: _651  and  _652
REMARK  269  A    between atoms: _651  and  _654
REMARK  270  A    between atoms: _658  and  _659
REMARK  271  A    between atoms: _664  and  _666
REMARK  272  A    between atoms: _666  and  _667
REMARK  273  A    between atoms: _666  and  _669
REMARK  274  A    between atoms: _669  and  _670
REMARK  275  A    between atoms: _670  and  _671
REMARK  276  A    between atoms: _671  and  _672
REMARK  277  A    between atoms: _672  and  _673
REMARK  278  A    between atoms: _677  and  _679
REMARK  279  A    between atoms: _679  and  _680
REMARK  280  A    between atoms: _679  and  _682
REMARK  281  A    between atoms: _682  and  _683
REMARK  282  A    between atoms: _686  and  _688
REMARK  283  A    between atoms: _688  and  _689
REMARK  284  A    between atoms: _688  and  _691
REMARK                            x       y       z     vdW  Elec       q    Type
REMARK                         _______ _______ _______ _____ _____    ______ ____
ROOT
ATOM      1  C   GLU A   7      33.929   7.495   2.842  0.00  0.00    +0.241 C 
ATOM      2  O   GLU A   7      34.053   8.287   3.782  0.00  0.00    -0.273 OA
ATOM      3  N   LEU A   8      32.807   7.383   2.138  0.00  0.00    -0.297 N 
ATOM      4  H   LEU A   8      32.765   6.701   1.354  0.00  0.00    +0.150 HD
ENDROOT
BRANCH   1   5
ATOM      5  CA  GLU A   7      35.077   6.570   2.420  0.00  0.00    +0.149 C 
BRANCH   5   8
ATOM      6  C   ASN A   6      33.958   4.550   3.198  0.00  0.00    +0.241 C 
ATOM      7  O   ASN A   6      33.835   4.988   4.338  0.00  0.00    -0.273 OA
ATOM      8  N   GLU A   7      34.544   5.229   2.216  0.00  0.00    -0.297 N 
ATOM      9  H   GLU A   7      34.624   4.791   1.276  0.00  0.00    +0.150 HD
BRANCH   6  10
ATOM     10  CA  ASN A   6      33.428   3.170   2.840  0.00  0.00    +0.158 C 
BRANCH  10  13
ATOM     11  C   LEU A   5      31.500   3.877   1.526  0.00  0.00    +0.241 C 
ATOM     12  O   LEU A   5      31.000   4.435   2.491  0.00  0.00    -0.273 OA
ATOM     13  N   ASN A   6      32.669   3.239   1.592  0.00  0.00    -0.297 N 
ATOM     14  H   ASN A   6      33.049   2.781   0.739  0.00  0.00    +0.150 HD
BRANCH  11  15
ATOM     15  CA  LEU A   5      30.794   3.900   0.167  0.00  0.00    +0.149 C 
BRANCH  15  18
ATOM     16  C   SER A   4      32.500   5.117  -1.022  0.00  0.00    +0.243 C 
ATOM     17  O   SER A   4      32.260   6.127  -0.363  0.00  0.00    -0.273 OA
ATOM     18  N   LEU A   5      31.818   3.988  -0.865  0.00  0.00    -0.297 N 
ATOM     19  H   LEU A   5      32.014   3.170  -1.477  0.00  0.00    +0.150 HD
BRANCH  16  20
ATOM     20  CA  SER A   4      33.591   5.122  -2.088  0.00  0.00    +0.178 C 
BRANCH  20  23
ATOM     21  C   SER A   3      35.030   3.299  -1.356  0.00  0.00    +0.243 C 
ATOM     22  O   SER A   3      35.391   3.927  -0.365  0.00  0.00    -0.273 OA
ATOM     23  N   SER A   4      34.169   3.788  -2.243  0.00  0.00    -0.295 N 
ATOM     24  H   SER A   4      33.901   3.209  -3.065  0.00  0.00    +0.150 HD
BRANCH  21  25
ATOM     25  CA  SER A   3      35.557   1.889  -1.616  0.00  0.00    +0.178 C 
BRANCH  25  28
ATOM     26  C   LEU A   2      33.381   0.858  -1.478  0.00  0.00    +0.241 C 
ATOM     27  O   LEU A   2      33.201   1.336  -0.356  0.00  0.00    -0.273 OA
ATOM     28  N   SER A   3      34.497   1.061  -2.169  0.00  0.00    -0.295 N 
ATOM     29  H   SER A   3      34.613   0.627  -3.107  0.00  0.00    +0.150 HD
BRANCH  26  30
ATOM     30  CA  LEU A   2      32.306   0.001  -2.139  0.00  0.00    +0.149 C 
BRANCH  30  33
ATOM     31  C   LEU A   1      31.688   1.459  -3.976  0.00  0.00    +0.238 C 
ATOM     32  O   LEU A   1      31.327   2.351  -3.201  0.00  0.00    -0.274 OA
ATOM     33  N   LEU A   2      32.170   0.291  -3.558  0.00  0.00    -0.297 N 
ATOM     34  H   LEU A   2      32.454  -0.425  -4.257  0.00  0.00    +0.150 HD
BRANCH  31  35
ATOM     35  CA  LEU A   1      31.581   1.642  -5.486  0.00  0.00    +0.145 C 
BRANCH  35  36
ATOM     36  N   LEU A   1      32.817   1.227  -6.132  0.00  0.00    -0.238 NA
ATOM     37  H   LEU A   1      32.806   0.437  -6.809  0.00  0.00    +0.142 HD
ENDBRANCH  35  36
BRANCH  35  38
ATOM     38  CB  LEU A   1      30.395   0.822  -6.008  0.00  0.00    +0.026 C 
BRANCH  38  39
ATOM     39  CG  LEU A   1      29.839   1.128  -7.401  0.00  0.00    +0.002 C 
ATOM     40  CD2 LEU A   1      29.405   2.598  -7.487  0.00  0.00    +0.000 C 
ATOM     41  CD1 LEU A   1      28.651   0.208  -7.668  0.00  0.00    +0.000 C 
ENDBRANCH  38  39
ENDBRANCH  35  38
ENDBRANCH  31  35
ENDBRANCH  30  33
BRANCH  30  42
ATOM     42  CB  LEU A   2      32.583  -1.497  -1.926  0.00  0.00    +0.029 C 
BRANCH  42  43
ATOM     43  CG  LEU A   2      31.338  -2.372  -1.694  0.00  0.00    +0.002 C 
ATOM     44  CD2 LEU A   2      30.685  -1.985  -0.371  0.00  0.00    +0.000 C 
ATOM     45  CD1 LEU A   2      30.344  -2.202  -2.838  0.00  0.00    +0.000 C 
ENDBRANCH  42  43
ENDBRANCH  30  42
ENDBRANCH  26  30
ENDBRANCH  25  28
BRANCH  25  46
ATOM     46  CB  SER A   3      36.740   1.942  -2.576  0.00  0.00    +0.166 C 
BRANCH  46  47
ATOM     47  OG  SER A   3      37.316   0.658  -2.713  0.00  0.00    -0.380 OA
ATOM     48  H   SER A   3      36.638   0.030  -3.068  0.00  0.00    +0.211 HD
ENDBRANCH  46  47
ENDBRANCH  25  46
ENDBRANCH  21  25
ENDBRANCH  20  23
BRANCH  20  49
ATOM     49  CB  SER A   4      33.023   5.627  -3.420  0.00  0.00    +0.166 C 
BRANCH  49  50
ATOM     50  OG  SER A   4      34.062   5.975  -4.321  0.00  0.00    -0.380 OA
ATOM     51  H   SER A   4      33.667   6.297  -5.170  0.00  0.00    +0.211 HD
ENDBRANCH  49  50
ENDBRANCH  20  49
ENDBRANCH  16  20
ENDBRANCH  15  18
BRANCH  15  52
ATOM     52  CB  LEU A   5      29.932   2.640  -0.009  0.00  0.00    +0.029 C 
BRANCH  52  53
ATOM     53  CG  LEU A   5      28.708   2.795  -0.929  0.00  0.00    +0.002 C 
ATOM     54  CD2 LEU A   5      27.735   3.794  -0.305  0.00  0.00    +0.000 C 
ATOM     55  CD1 LEU A   5      28.034   1.437  -1.167  0.00  0.00    +0.000 C 
ENDBRANCH  52  53
ENDBRANCH  15  52
ENDBRANCH  11  15
ENDBRANCH  10  13
BRANCH  10  56
ATOM     56  CB  ASN A   6      34.598   2.181   2.725  0.00  0.00    +0.114 C 
BRANCH  56  57
ATOM     57  CG  ASN A   6      34.142   0.737   2.756  0.00  0.00    +0.222 C 
ATOM     58  OD1 ASN A   6      33.071   0.429   3.280  0.00  0.00    -0.275 OA
ATOM     59  ND2 ASN A   6      34.960  -0.160   2.217  0.00  0.00    -0.329 N 
ATOM     60 HD21 ASN A   6      34.705  -1.168   2.227  0.00  0.00    +0.145 HD
ATOM     61 HD22 ASN A   6      35.855   0.146   1.785  0.00  0.00    +0.145 HD
ENDBRANCH  56  57
ENDBRANCH  10  56
ENDBRANCH   6  10
ENDBRANCH   5   8
BRANCH   5  62
ATOM     62  CB  GLU A   7      35.717   7.078   1.124  0.00  0.00    +0.041 C 
BRANCH  62  63
ATOM     63  CG  GLU A   7      36.124   8.549   1.164  0.00  0.00    +0.116 C 
BRANCH  63  64
ATOM     64  CD  GLU A   7      37.215   8.827   2.177  0.00  0.00    +0.365 C 
ATOM     65  OE2 GLU A   7      37.326   9.982   2.628  0.00  0.00    -0.246 OA
ATOM     66  OE1 GLU A   7      37.965   7.893   2.511  0.00  0.00    -0.246 OA
ENDBRANCH  63  64
ENDBRANCH  62  63
ENDBRANCH   5  62
ENDBRANCH   1   5
BRANCH   3  67
ATOM     67  CA  LEU A   8      31.636   8.193   2.440  0.00  0.00    +0.149 C 
BRANCH  67  68
ATOM     68  C   LEU A   8      31.165   7.921   3.858  0.00  0.00    +0.241 C 
ATOM     69  O   LEU A   8      30.893   8.852   4.621  0.00  0.00    -0.273 OA
ATOM     70  N   GLY A   9      31.064   6.641   4.204  0.00  0.00    -0.295 N 
ATOM     71  H   GLY A   9      31.299   5.899   3.514  0.00  0.00    +0.150 HD
BRANCH  70  72
ATOM     72  CA  GLY A   9      30.628   6.274   5.537  0.00  0.00    +0.176 C 
BRANCH  72  73
ATOM     73  C   GLY A   9      31.486   6.964   6.574  0.00  0.00    +0.243 C 
ATOM     74  O   GLY A   9      30.986   7.507   7.553  0.00  0.00    -0.273 OA
ATOM     75  N   GLU A  10      32.793   6.959   6.342  0.00  0.00    -0.297 N 
ATOM     76  H   GLU A  10      33.156   6.495   5.485  0.00  0.00    +0.150 HD
BRANCH  75  77
ATOM     77  CA  GLU A  10      33.725   7.587   7.258  0.00  0.00    +0.149 C 
BRANCH  77  78
ATOM     78  C   GLU A  10      33.559   9.111   7.303  0.00  0.00    +0.241 C 
ATOM     79  O   GLU A  10      33.589   9.721   8.371  0.00  0.00    -0.273 OA
ATOM     80  N   ARG A  11      33.380   9.730   6.147  0.00  0.00    -0.297 N 
ATOM     81  H   ARG A  11      33.366   9.184   5.262  0.00  0.00    +0.150 HD
BRANCH  80  82
ATOM     82  CA  ARG A  11      33.204  11.169   6.114  0.00  0.00    +0.149 C 
BRANCH  82  83
ATOM     83  C   ARG A  11      31.958  11.565   6.895  0.00  0.00    +0.241 C 
ATOM     84  O   ARG A  11      31.926  12.616   7.554  0.00  0.00    -0.273 OA
ATOM     85  N   GLN A  12      30.931  10.724   6.831  0.00  0.00    -0.297 N 
ATOM     86  H   GLN A  12      31.006   9.854   6.266  0.00  0.00    +0.150 HD
BRANCH  85  87
ATOM     87  CA  GLN A  12      29.703  11.019   7.550  0.00  0.00    +0.149 C 
BRANCH  87  88
ATOM     88  C   GLN A  12      29.869  10.842   9.057  0.00  0.00    +0.241 C 
ATOM     89  O   GLN A  12      29.345  11.634   9.829  0.00  0.00    -0.273 OA
ATOM     90  N   LEU A  13      30.613   9.821   9.476  0.00  0.00    -0.298 N 
ATOM     91  H   LEU A  13      31.047   9.183   8.779  0.00  0.00    +0.150 HD
BRANCH  90  92
ATOM     92  CA  LEU A  13      30.826   9.587  10.895  0.00  0.00    +0.137 C 
BRANCH  92  93
ATOM     93  C   LEU A  13      31.387  10.841  11.566  0.00  0.00    +0.227 C 
ATOM     94  O   LEU A  13      31.004  11.179  12.691  0.00  0.00    -0.286 OA
ENDBRANCH  92  93
BRANCH  92  95
ATOM     95  CB  LEU A  13      31.783   8.403  11.114  0.00  0.00    +0.028 C 
BRANCH  95  96
ATOM     96  CG  LEU A  13      32.082   8.018  12.576  0.00  0.00    +0.002 C 
ATOM     97  CD2 LEU A  13      30.768   7.819  13.347  0.00  0.00    +0.000 C 
ATOM     98  CD1 LEU A  13      32.920   6.738  12.618  0.00  0.00    +0.000 C 
ENDBRANCH  95  96
ENDBRANCH  92  95
ENDBRANCH  90  92
ENDBRANCH  87  88
BRANCH  87  99
ATOM     99  CB  GLN A  12      28.551  10.156   7.015  0.00  0.00    +0.039 C 
BRANCH  99 100
ATOM    100  CG  GLN A  12      28.204  10.525   5.573  0.00  0.00    +0.087 C 
BRANCH 100 101
ATOM    101  CD  GLN A  12      26.881   9.973   5.092  0.00  0.00    +0.219 C 
ATOM    102  NE2 GLN A  12      26.091   9.420   6.004  0.00  0.00    -0.329 N 
ATOM    103 HE21 GLN A  12      26.396   9.375   6.997  0.00  0.00    +0.145 HD
ATOM    104 HE22 GLN A  12      25.167   9.032   5.725  0.00  0.00    +0.145 HD
ATOM    105  OE1 GLN A  12      26.569  10.052   3.904  0.00  0.00    -0.275 OA
ENDBRANCH 100 101
ENDBRANCH  99 100
ENDBRANCH  87  99
ENDBRANCH  85  87
ENDBRANCH  82  83
BRANCH  82 106
ATOM    106  CB  ARG A  11      33.110  11.661   4.667  0.00  0.00    +0.033 C 
BRANCH 106 107
ATOM    107  CG  ARG A  11      34.425  11.537   3.915  0.00  0.00    +0.045 C 
BRANCH 107 108
ATOM    108  CD  ARG A  11      34.291  12.062   2.500  0.00  0.00    +0.174 C 
BRANCH 108 109
ATOM    109  NE  ARG A  11      35.558  12.042   1.769  0.00  0.00    -0.265 N 
ATOM    110  HE  ARG A  11      36.366  11.544   2.194  0.00  0.00    +0.259 HD
ATOM    111  CZ  ARG A  11      35.728  12.628   0.590  0.00  0.00    +0.342 C 
ATOM    112  NH2 ARG A  11      34.721  13.269   0.019  0.00  0.00    -0.292 N 
ATOM    113 HH21 ARG A  11      33.797  13.314   0.494  0.00  0.00    +0.255 HD
ATOM    114 HH22 ARG A  11      34.854  13.728  -0.905  0.00  0.00    +0.255 HD
ATOM    115  NH1 ARG A  11      36.903  12.587  -0.011  0.00  0.00    -0.292 N 
ATOM    116 HH11 ARG A  11      37.700  12.094   0.439  0.00  0.00    +0.255 HD
ATOM    117 HH12 ARG A  11      37.031  13.048  -0.935  0.00  0.00    +0.255 HD
ENDBRANCH 108 109
ENDBRANCH 107 108
ENDBRANCH 106 107
ENDBRANCH  82 106
ENDBRANCH  80  82
ENDBRANCH  77  78
BRANCH  77 118
ATOM    118  CB  GLU A  10      35.149   7.217   6.856  0.00  0.00    +0.041 C 
BRANCH 118 119
ATOM    119  CG  GLU A  10      36.195   7.805   7.750  0.00  0.00    +0.116 C 
BRANCH 119 120
ATOM    120  CD  GLU A  10      37.377   6.885   7.902  0.00  0.00    +0.365 C 
ATOM    121  OE2 GLU A  10      37.197   5.795   8.488  0.00  0.00    -0.246 OA
ATOM    122  OE1 GLU A  10      38.475   7.244   7.431  0.00  0.00    -0.246 OA
ENDBRANCH 119 120
ENDBRANCH 118 119
ENDBRANCH  77 118
ENDBRANCH  75  77
ENDBRANCH  72  73
ENDBRANCH  70  72
ENDBRANCH  67  68
BRANCH  67 123
ATOM    123  CB  LEU A   8      30.504   7.889   1.463  0.00  0.00    +0.029 C 
BRANCH 123 124
ATOM    124  CG  LEU A   8      29.213   8.649   1.775  0.00  0.00    +0.002 C 
ATOM    125  CD2 LEU A   8      29.476  10.173   1.741  0.00  0.00    +0.000 C 
ATOM    126  CD1 LEU A   8      28.154   8.256   0.769  0.00  0.00    +0.000 C 
ENDBRANCH 123 124
ENDBRANCH  67 123
ENDBRANCH   3  67
TORSDOF 55
REMARK  Name = ../refined-set-2016/3b68/3b68_pocket.pdb
REMARK  284 active torsions:
REMARK  status: ('A' for Active; 'I' for Inactive)
REMARK    1  A    between atoms: _1  and  _3
REMARK    2  A    between atoms: _3  and  _4
REMARK    3  A    between atoms: _3  and  _6
REMARK    4  A    between atoms: _9  and  _11
REMARK    5  A    between atoms: _11  and  _12
REMARK    6  A    between atoms: _15  and  _17
REMARK    7  A    between atoms: _17  and  _18
REMARK    8  A    between atoms: _17  and  _20
REMARK    9  A    between atoms: _20  and  _21
REMARK   10  A    between atoms: _24  and  _26
REMARK   11  A    between atoms: _26  and  _27
REMARK   12  A    between atoms: _26  and  _29
REMARK   13  A    between atoms: _29  and  _30
REMARK   14  A    between atoms: _33  and  _35
REMARK   15  A    between atoms: _35  and  _36
REMARK   16  A    between atoms: _35  and  _38
REMARK   17  A    between atoms: _38  and  _39
REMARK   18  A    between atoms: _41  and  _43
REMARK   19  A    between atoms: _43  and  _44
REMARK   20  A    between atoms: _43  and  _46
REMARK   21  A    between atoms: _46  and  _47
REMARK   22  A    between atoms: _49  and  _51
REMARK   23  A    between atoms: _51  and  _52
REMARK   24  A    between atoms: _51  and  _54
REMARK   25  A    between atoms: _54  and  _55
REMARK   26  A    between atoms: _58  and  _60
REMARK   27  A    between atoms: _60  and  _61
REMARK   28  A    between atoms: _60  and  _63
REMARK   29  A    between atoms: _63  and  _64
REMARK   30  A    between atoms: _69  and  _71
REMARK   31  A    between atoms: _71  and  _72
REMARK   32  A    between atoms: _71  and  _74
REMARK   33  A    between atoms: _74  and  _75
REMARK   34  A    between atoms: _75  and  _76
REMARK   35  A    between atoms: _79  and  _81
REMARK   36  A    between atoms: _81  and  _82
REMARK   37  A    between atoms: _81  and  _84
REMARK   38  A    between atoms: _84  and  _85
REMARK   39  A    between atoms: _88  and  _90
REMARK   40  A    between atoms: _90  and  _91
REMARK   41  A    between atoms: _93  and  _95
REMARK   42  A    between atoms: _95  and  _96
REMARK   43  A    between atoms: _95  and  _98
REMARK   44  A    between atoms: _98  and  _99
REMARK   45  A    between atoms: _99  and  _100
REMARK   46  A    between atoms: _103  and  _105
REMARK   47  A    between atoms: _105  and  _106
REMARK   48  A    between atoms: _105  and  _108
REMARK   49  A    between atoms: _108  and  _109
REMARK   50  A    between atoms: _109  and  _110
REMARK   51  A    between atoms: _110  and  _111
REMARK   52  A    between atoms: _120  and  _122
REMARK   53  A    between atoms: _122  and  _123
REMARK   54  A    between atoms: _122  and  _125
REMARK   55  A    between atoms: _125  and  _126
REMARK   56  A    between atoms: _126  and  _127
REMARK   57  A    between atoms: _132  and  _134
REMARK   58  A    between atoms: _134  and  _135
REMARK   59  A    between atoms: _134  and  _137
REMARK   60  A    between atoms: _137  and  _138
REMARK   61  A    between atoms: _141  and  _143
REMARK   62  A    between atoms: _143  and  _144
REMARK   63  A    between atoms: _147  and  _149
REMARK   64  A    between atoms: _149  and  _150
REMARK   65  A    between atoms: _149  and  _152
REMARK   66  A    between atoms: _152  and  _153
REMARK   67  A    between atoms: _156  and  _158
REMARK   68  A    between atoms: _158  and  _159
REMARK   69  A    between atoms: _158  and  _161
REMARK   70  A    between atoms: _161  and  _162
REMARK   71  A    between atoms: _162  and  _163
REMARK   72  A    between atoms: _168  and  _170
REMARK   73  A    between atoms: _170  and  _171
REMARK   74  A    between atoms: _170  and  _173
REMARK   75  A    between atoms: _173  and  _174
REMARK   76  A    between atoms: _179  and  _180
REMARK   77  A    between atoms: _182  and  _184
REMARK   78  A    between atoms: _184  and  _185
REMARK   79  A    between atoms: _184  and  _187
REMARK   80  A    between atoms: _187  and  _188
REMARK   81  A    between atoms: _190  and  _192
REMARK   82  A    between atoms: _192  and  _193
REMARK   83  A    between atoms: _192  and  _195
REMARK   84  A    between atoms: _195  and  _196
REMARK   85  A    between atoms: _206  and  _208
REMARK   86  A    between atoms: _208  and  _209
REMARK   87  A    between atoms: _208  and  _211
REMARK   88  A    between atoms: _211  and  _212
REMARK   89  A    between atoms: _212  and  _213
REMARK   90  A    between atoms: _215  and  _217
REMARK   91  A    between atoms: _217  and  _218
REMARK   92  A    between atoms: _220  and  _222
REMARK   93  A    between atoms: _222  and  _223
REMARK   94  A    between atoms: _222  and  _225
REMARK   95  A    between atoms: _225  and  _226
REMARK   96  A    between atoms: _229  and  _231
REMARK   97  A    between atoms: _231  and  _232
REMARK   98  A    between atoms: _231  and  _234
REMARK   99  A    between atoms: _234  and  _235
REMARK  100  A    between atoms: _235  and  _236
REMARK  101  A    between atoms: _238  and  _240
REMARK  102  A    between atoms: _240  and  _241
REMARK  103  A    between atoms: _240  and  _243
REMARK  104  A    between atoms: _246  and  _248
REMARK  105  A    between atoms: _248  and  _249
REMARK  106  A    between atoms: _248  and  _251
REMARK  107  A    between atoms: _251  and  _252
REMARK  108  A    between atoms: _258  and  _260
REMARK  109  A    between atoms: _260  and  _261
REMARK  110  A    between atoms: _264  and  _266
REMARK  111  A    between atoms: _266  and  _267
REMARK  112  A    between atoms: _266  and  _269
REMARK  113  A    between atoms: _269  and  _270
REMARK  114  A    between atoms: _270  and  _271
REMARK  115  A    between atoms: _273  and  _275
REMARK  116  A    between atoms: _275  and  _276
REMARK  117  A    between atoms: _278  and  _280
REMARK  118  A    between atoms: _280  and  _281
REMARK  119  A    between atoms: _280  and  _283
REMARK  120  A    between atoms: _283  and  _284
REMARK  121  A    between atoms: _294  and  _296
REMARK  122  A    between atoms: _296  and  _297
REMARK  123  A    between atoms: _296  and  _299
REMARK  124  A    between atoms: _299  and  _300
REMARK  125  A    between atoms: _300  and  _301
REMARK  126  A    between atoms: _301  and  _302
REMARK  127  A    between atoms: _311  and  _313
REMARK  128  A    between atoms: _313  and  _314
REMARK  129  A    between atoms: _313  and  _316
REMARK  130  A    between atoms: _316  and  _317
REMARK  131  A    between atoms: _319  and  _321
REMARK  132  A    between atoms: _321  and  _322
REMARK  133  A    between atoms: _321  and  _324
REMARK  134  A    between atoms: _324  and  _325
REMARK  135  A    between atoms: _328  and  _330
REMARK  136  A    between atoms: _330  and  _331
REMARK  137  A    between atoms: _330  and  _333
REMARK  138  A    between atoms: _333  and  _334
REMARK  139  A    between atoms: _339  and  _340
REMARK  140  A    between atoms: _342  and  _344
REMARK  141  A    between atoms: _344  and  _345
REMARK  142  A    between atoms: _344  and  _347
REMARK  143  A    between atoms: _347  and  _348
REMARK  144  A    between atoms: _354  and  _356
REMARK  145  A    between atoms: _356  and  _357
REMARK  146  A    between atoms: _361  and  _362
REMARK  147  A    between atoms: _367  and  _369
REMARK  148  A    between atoms: _369  and  _370
REMARK  149  A    between atoms: _369  and  _372
REMARK  150  A    between atoms: _372  and  _373
REMARK  151  A    between atoms: _376  and  _378
REMARK  152  A    between atoms: _378  and  _379
REMARK  153  A    between atoms: _378  and  _381
REMARK  154  A    between atoms: _381  and  _382
REMARK  155  A    between atoms: _384  and  _386
REMARK  156  A    between atoms: _386  and  _387
REMARK  157  A    between atoms: _386  and  _389
REMARK  158  A    between atoms: _389  and  _390
REMARK  159  A    between atoms: _390  and  _391
REMARK  160  A    between atoms: _393  and  _395
REMARK  161  A    between atoms: _395  and  _396
REMARK  162  A    between atoms: _395  and  _398
REMARK  163  A    between atoms: _398  and  _399
REMARK  164  A    between atoms: _399  and  _400
REMARK  165  A    between atoms: _405  and  _407
REMARK  166  A    between atoms: _407  and  _408
REMARK  167  A    between atoms: _407  and  _410
REMARK  168  A    between atoms: _412  and  _414
REMARK  169  A    between atoms: _414  and  _415
REMARK  170  A    between atoms: _414  and  _417
REMARK  171  A    between atoms: _417  and  _418
REMARK  172  A    between atoms: _418  and  _419
REMARK  173  A    between atoms: _421  and  _423
REMARK  174  A    between atoms: _423  and  _424
REMARK  175  A    between atoms: _423  and  _426
REMARK  176  A    between atoms: _426  and  _427
REMARK  177  A    between atoms: _430  and  _432
REMARK  178  A    between atoms: _432  and  _433
REMARK  179  A    between atoms: _432  and  _435
REMARK  180  A    between atoms: _435  and  _436
REMARK  181  A    between atoms: _439  and  _441
REMARK  182  A    between atoms: _441  and  _442
REMARK  183  A    between atoms: _441  and  _444
REMARK  184  A    between atoms: _447  and  _449
REMARK  185  A    between atoms: _449  and  _450
REMARK  186  A    between atoms: _449  and  _452
REMARK  187  A    between atoms: _452  and  _453
REMARK  188  A    between atoms: _456  and  _458
REMARK  189  A    between atoms: _458  and  _459
REMARK  190  A    between atoms: _462  and  _464
REMARK  191  A    between atoms: _464  and  _465
REMARK  192  A    between atoms: _464  and  _467
REMARK  193  A    between atoms: _467  and  _468
REMARK  194  A    between atoms: _471  and  _473
REMARK  195  A    between atoms: _473  and  _474
REMARK  196  A    between atoms: _473  and  _476
REMARK  197  A    between atoms: _476  and  _477
REMARK  198  A    between atoms: _482  and  _484
REMARK  199  A    between atoms: _484  and  _485
REMARK  200  A    between atoms: _484  and  _487
REMARK  201  A    between atoms: _487  and  _488
REMARK  202  A    between atoms: _494  and  _496
REMARK  203  A    between atoms: _496  and  _497
REMARK  204  A    between atoms: _496  and  _499
REMARK  205  A    between atoms: _499  and  _500
REMARK  206  A    between atoms: _503  and  _505
REMARK  207  A    between atoms: _505  and  _506
REMARK  208  A    between atoms: _505  and  _508
REMARK  209  A    between atoms: _508  and  _509
REMARK  210  A    between atoms: _515  and  _517
REMARK  211  A    between atoms: _517  and  _518
REMARK  212  A    between atoms: _517  and  _520
REMARK  213  A    between atoms: _520  and  _521
REMARK  214  A    between atoms: _524  and  _526
REMARK  215  A    between atoms: _526  and  _527
REMARK  216  A    between atoms: _526  and  _529
REMARK  217  A    between atoms: _529  and  _530
REMARK  218  A    between atoms: _533  and  _535
REMARK  219  A    between atoms: _535  and  _536
REMARK  220  A    between atoms: _535  and  _538
REMARK  221  A    between atoms: _541  and  _543
REMARK  222  A    between atoms: _543  and  _544
REMARK  223  A    between atoms: _543  and  _546
REMARK  224  A    between atoms: _546  and  _547
REMARK  225  A    between atoms: _550  and  _552
REMARK  226  A    between atoms: _552  and  _553
REMARK  227  A    between atoms: _552  and  _555
REMARK  228  A    between atoms: _555  and  _556
REMARK  229  A    between atoms: _563  and  _564
REMARK  230  A    between atoms: _569  and  _571
REMARK  231  A    between atoms: _571  and  _572
REMARK  232  A    between atoms: _571  and  _574
REMARK  233  A    between atoms: _574  and  _575
REMARK  234  A    between atoms: _575  and  _576
REMARK  235  A    between atoms: _578  and  _580
REMARK  236  A    between atoms: _580  and  _581
REMARK  237  A    between atoms: _580  and  _583
REMARK  238  A    between atoms: _583  and  _584
REMARK  239  A    between atoms: _584  and  _585
REMARK  240  A    between atoms: _587  and  _589
REMARK  241  A    between atoms: _589  and  _590
REMARK  242  A    between atoms: _593  and  _595
REMARK  243  A    between atoms: _595  and  _596
REMARK  244  A    between atoms: _595  and  _598
REMARK  245  A    between atoms: _598  and  _599
REMARK  246  A    between atoms: _599  and  _600
REMARK  247  A    between atoms: _603  and  _605
REMARK  248  A    between atoms: _605  and  _606
REMARK  249  A    between atoms: _605  and  _608
REMARK  250  A    between atoms: _608  and  _609
REMARK  251  A    between atoms: _612  and  _614
REMARK  252  A    between atoms: _614  and  _615
REMARK  253  A    between atoms: _614  and  _617
REMARK  254  A    between atoms: _617  and  _618
REMARK  255  A    between atoms: _621  and  _623
REMARK  256  A    between atoms: _623  and  _624
REMARK  257  A    between atoms: _623  and  _626
REMARK  258  A    between atoms: _626  and  _627
REMARK  259  A    between atoms: _629  and  _631
REMARK  260  A    between atoms: _631  and  _632
REMARK  261  A    between atoms: _631  and  _634
REMARK  262  A    between atoms: _637  and  _639
REMARK  263  A    between atoms: _639  and  _640
REMARK  264  A    between atoms: _639  and  _642
REMARK  265  A    between atoms: _642  and  _643
REMARK  266  A    between atoms: _643  and  _644
REMARK  267  A    between atoms: _649  and  _651
REMARK  268  A    between atoms: _651  and  _652
REMARK  269  A    between atoms: _651  and  _654
REMARK  270  A    between atoms: _658  and  _659
REMARK  271  A    between atoms: _664  and  _666
REMARK  272  A    between atoms: _666  and  _667
REMARK  273  A    between atoms: _666  and  _669
REMARK  274  A    between atoms: _669  and  _670
REMARK  275  A    between atoms: _670  and  _671
REMARK  276  A    between atoms: _671  and  _672
REMARK  277  A    between atoms: _672  and  _673
REMARK  278  A    between atoms: _677  and  _679
REMARK  279  A    between atoms: _679  and  _680
REMARK  280  A    between atoms: _679  and  _682
REMARK  281  A    between atoms: _682  and  _683
REMARK  282  A    between atoms: _686  and  _688
REMARK  283  A    between atoms: _688  and  _689
REMARK  284  A    between atoms: _688  and  _691
REMARK                            x       y       z     vdW  Elec       q    Type
REMARK                         _______ _______ _______ _____ _____    ______ ____
ROOT
ATOM      1  CA  ALA A   1      29.832   3.438  21.896  0.00  0.00    +0.133 C 
ATOM      2  CB  ALA A   1      29.728   2.587  23.178  0.00  0.00    +0.027 C 
ENDROOT
BRANCH   1   3
ATOM      3  N   ALA A   1      30.403   4.744  22.199  0.00  0.00    -0.239 NA
ATOM      4  H   ALA A   1      30.599   4.991  23.190  0.00  0.00    +0.142 HD
ENDBRANCH   1   3
BRANCH   1   5
ATOM      5  C   ALA A   1      28.465   3.584  21.258  0.00  0.00    +0.224 C 
ATOM      6  O   ALA A   1      28.148   2.905  20.287  0.00  0.00    -0.287 OA
ENDBRANCH   1   5
TORSDOF 2
REMARK  Name = ../refined-set-2016/3b68/3b68_pocket.pdb
REMARK  284 active torsions:
REMARK  status: ('A' for Active; 'I' for Inactive)
REMARK    1  A    between atoms: _1  and  _3
REMARK    2  A    between atoms: _3  and  _4
REMARK    3  A    between atoms: _3  and  _6
REMARK    4  A    between atoms: _9  and  _11
REMARK    5  A    between atoms: _11  and  _12
REMARK    6  A    between atoms: _15  and  _17
REMARK    7  A    between atoms: _17  and  _18
REMARK    8  A    between atoms: _17  and  _20
REMARK    9  A    between atoms: _20  and  _21
REMARK   10  A    between atoms: _24  and  _26
REMARK   11  A    between atoms: _26  and  _27
REMARK   12  A    between atoms: _26  and  _29
REMARK   13  A    between atoms: _29  and  _30
REMARK   14  A    between atoms: _33  and  _35
REMARK   15  A    between atoms: _35  and  _36
REMARK   16  A    between atoms: _35  and  _38
REMARK   17  A    between atoms: _38  and  _39
REMARK   18  A    between atoms: _41  and  _43
REMARK   19  A    between atoms: _43  and  _44
REMARK   20  A    between atoms: _43  and  _46
REMARK   21  A    between atoms: _46  and  _47
REMARK   22  A    between atoms: _49  and  _51
REMARK   23  A    between atoms: _51  and  _52
REMARK   24  A    between atoms: _51  and  _54
REMARK   25  A    between atoms: _54  and  _55
REMARK   26  A    between atoms: _58  and  _60
REMARK   27  A    between atoms: _60  and  _61
REMARK   28  A    between atoms: _60  and  _63
REMARK   29  A    between atoms: _63  and  _64
REMARK   30  A    between atoms: _69  and  _71
REMARK   31  A    between atoms: _71  and  _72
REMARK   32  A    between atoms: _71  and  _74
REMARK   33  A    between atoms: _74  and  _75
REMARK   34  A    between atoms: _75  and  _76
REMARK   35  A    between atoms: _79  and  _81
REMARK   36  A    between atoms: _81  and  _82
REMARK   37  A    between atoms: _81  and  _84
REMARK   38  A    between atoms: _84  and  _85
REMARK   39  A    between atoms: _88  and  _90
REMARK   40  A    between atoms: _90  and  _91
REMARK   41  A    between atoms: _93  and  _95
REMARK   42  A    between atoms: _95  and  _96
REMARK   43  A    between atoms: _95  and  _98
REMARK   44  A    between atoms: _98  and  _99
REMARK   45  A    between atoms: _99  and  _100
REMARK   46  A    between atoms: _103  and  _105
REMARK   47  A    between atoms: _105  and  _106
REMARK   48  A    between atoms: _105  and  _108
REMARK   49  A    between atoms: _108  and  _109
REMARK   50  A    between atoms: _109  and  _110
REMARK   51  A    between atoms: _110  and  _111
REMARK   52  A    between atoms: _120  and  _122
REMARK   53  A    between atoms: _122  and  _123
REMARK   54  A    between atoms: _122  and  _125
REMARK   55  A    between atoms: _125  and  _126
REMARK   56  A    between atoms: _126  and  _127
REMARK   57  A    between atoms: _132  and  _134
REMARK   58  A    between atoms: _134  and  _135
REMARK   59  A    between atoms: _134  and  _137
REMARK   60  A    between atoms: _137  and  _138
REMARK   61  A    between atoms: _141  and  _143
REMARK   62  A    between atoms: _143  and  _144
REMARK   63  A    between atoms: _147  and  _149
REMARK   64  A    between atoms: _149  and  _150
REMARK   65  A    between atoms: _149  and  _152
REMARK   66  A    between atoms: _152  and  _153
REMARK   67  A    between atoms: _156  and  _158
REMARK   68  A    between atoms: _158  and  _159
REMARK   69  A    between atoms: _158  and  _161
REMARK   70  A    between atoms: _161  and  _162
REMARK   71  A    between atoms: _162  and  _163
REMARK   72  A    between atoms: _168  and  _170
REMARK   73  A    between atoms: _170  and  _171
REMARK   74  A    between atoms: _170  and  _173
REMARK   75  A    between atoms: _173  and  _174
REMARK   76  A    between atoms: _179  and  _180
REMARK   77  A    between atoms: _182  and  _184
REMARK   78  A    between atoms: _184  and  _185
REMARK   79  A    between atoms: _184  and  _187
REMARK   80  A    between atoms: _187  and  _188
REMARK   81  A    between atoms: _190  and  _192
REMARK   82  A    between atoms: _192  and  _193
REMARK   83  A    between atoms: _192  and  _195
REMARK   84  A    between atoms: _195  and  _196
REMARK   85  A    between atoms: _206  and  _208
REMARK   86  A    between atoms: _208  and  _209
REMARK   87  A    between atoms: _208  and  _211
REMARK   88  A    between atoms: _211  and  _212
REMARK   89  A    between atoms: _212  and  _213
REMARK   90  A    between atoms: _215  and  _217
REMARK   91  A    between atoms: _217  and  _218
REMARK   92  A    between atoms: _220  and  _222
REMARK   93  A    between atoms: _222  and  _223
REMARK   94  A    between atoms: _222  and  _225
REMARK   95  A    between atoms: _225  and  _226
REMARK   96  A    between atoms: _229  and  _231
REMARK   97  A    between atoms: _231  and  _232
REMARK   98  A    between atoms: _231  and  _234
REMARK   99  A    between atoms: _234  and  _235
REMARK  100  A    between atoms: _235  and  _236
REMARK  101  A    between atoms: _238  and  _240
REMARK  102  A    between atoms: _240  and  _241
REMARK  103  A    between atoms: _240  and  _243
REMARK  104  A    between atoms: _246  and  _248
REMARK  105  A    between atoms: _248  and  _249
REMARK  106  A    between atoms: _248  and  _251
REMARK  107  A    between atoms: _251  and  _252
REMARK  108  A    between atoms: _258  and  _260
REMARK  109  A    between atoms: _260  and  _261
REMARK  110  A    between atoms: _264  and  _266
REMARK  111  A    between atoms: _266  and  _267
REMARK  112  A    between atoms: _266  and  _269
REMARK  113  A    between atoms: _269  and  _270
REMARK  114  A    between atoms: _270  and  _271
REMARK  115  A    between atoms: _273  and  _275
REMARK  116  A    between atoms: _275  and  _276
REMARK  117  A    between atoms: _278  and  _280
REMARK  118  A    between atoms: _280  and  _281
REMARK  119  A    between atoms: _280  and  _283
REMARK  120  A    between atoms: _283  and  _284
REMARK  121  A    between atoms: _294  and  _296
REMARK  122  A    between atoms: _296  and  _297
REMARK  123  A    between atoms: _296  and  _299
REMARK  124  A    between atoms: _299  and  _300
REMARK  125  A    between atoms: _300  and  _301
REMARK  126  A    between atoms: _301  and  _302
REMARK  127  A    between atoms: _311  and  _313
REMARK  128  A    between atoms: _313  and  _314
REMARK  129  A    between atoms: _313  and  _316
REMARK  130  A    between atoms: _316  and  _317
REMARK  131  A    between atoms: _319  and  _321
REMARK  132  A    between atoms: _321  and  _322
REMARK  133  A    between atoms: _321  and  _324
REMARK  134  A    between atoms: _324  and  _325
REMARK  135  A    between atoms: _328  and  _330
REMARK  136  A    between atoms: _330  and  _331
REMARK  137  A    between atoms: _330  and  _333
REMARK  138  A    between atoms: _333  and  _334
REMARK  139  A    between atoms: _339  and  _340
REMARK  140  A    between atoms: _342  and  _344
REMARK  141  A    between atoms: _344  and  _345
REMARK  142  A    between atoms: _344  and  _347
REMARK  143  A    between atoms: _347  and  _348
REMARK  144  A    between atoms: _354  and  _356
REMARK  145  A    between atoms: _356  and  _357
REMARK  146  A    between atoms: _361  and  _362
REMARK  147  A    between atoms: _367  and  _369
REMARK  148  A    between atoms: _369  and  _370
REMARK  149  A    between atoms: _369  and  _372
REMARK  150  A    between atoms: _372  and  _373
REMARK  151  A    between atoms: _376  and  _378
REMARK  152  A    between atoms: _378  and  _379
REMARK  153  A    between atoms: _378  and  _381
REMARK  154  A    between atoms: _381  and  _382
REMARK  155  A    between atoms: _384  and  _386
REMARK  156  A    between atoms: _386  and  _387
REMARK  157  A    between atoms: _386  and  _389
REMARK  158  A    between atoms: _389  and  _390
REMARK  159  A    between atoms: _390  and  _391
REMARK  160  A    between atoms: _393  and  _395
REMARK  161  A    between atoms: _395  and  _396
REMARK  162  A    between atoms: _395  and  _398
REMARK  163  A    between atoms: _398  and  _399
REMARK  164  A    between atoms: _399  and  _400
REMARK  165  A    between atoms: _405  and  _407
REMARK  166  A    between atoms: _407  and  _408
REMARK  167  A    between atoms: _407  and  _410
REMARK  168  A    between atoms: _412  and  _414
REMARK  169  A    between atoms: _414  and  _415
REMARK  170  A    between atoms: _414  and  _417
REMARK  171  A    between atoms: _417  and  _418
REMARK  172  A    between atoms: _418  and  _419
REMARK  173  A    between atoms: _421  and  _423
REMARK  174  A    between atoms: _423  and  _424
REMARK  175  A    between atoms: _423  and  _426
REMARK  176  A    between atoms: _426  and  _427
REMARK  177  A    between atoms: _430  and  _432
REMARK  178  A    between atoms: _432  and  _433
REMARK  179  A    between atoms: _432  and  _435
REMARK  180  A    between atoms: _435  and  _436
REMARK  181  A    between atoms: _439  and  _441
REMARK  182  A    between atoms: _441  and  _442
REMARK  183  A    between atoms: _441  and  _444
REMARK  184  A    between atoms: _447  and  _449
REMARK  185  A    between atoms: _449  and  _450
REMARK  186  A    between atoms: _449  and  _452
REMARK  187  A    between atoms: _452  and  _453
REMARK  188  A    between atoms: _456  and  _458
REMARK  189  A    between atoms: _458  and  _459
REMARK  190  A    between atoms: _462  and  _464
REMARK  191  A    between atoms: _464  and  _465
REMARK  192  A    between atoms: _464  and  _467
REMARK  193  A    between atoms: _467  and  _468
REMARK  194  A    between atoms: _471  and  _473
REMARK  195  A    between atoms: _473  and  _474
REMARK  196  A    between atoms: _473  and  _476
REMARK  197  A    between atoms: _476  and  _477
REMARK  198  A    between atoms: _482  and  _484
REMARK  199  A    between atoms: _484  and  _485
REMARK  200  A    between atoms: _484  and  _487
REMARK  201  A    between atoms: _487  and  _488
REMARK  202  A    between atoms: _494  and  _496
REMARK  203  A    between atoms: _496  and  _497
REMARK  204  A    between atoms: _496  and  _499
REMARK  205  A    between atoms: _499  and  _500
REMARK  206  A    between atoms: _503  and  _505
REMARK  207  A    between atoms: _505  and  _506
REMARK  208  A    between atoms: _505  and  _508
REMARK  209  A    between atoms: _508  and  _509
REMARK  210  A    between atoms: _515  and  _517
REMARK  211  A    between atoms: _517  and  _518
REMARK  212  A    between atoms: _517  and  _520
REMARK  213  A    between atoms: _520  and  _521
REMARK  214  A    between atoms: _524  and  _526
REMARK  215  A    between atoms: _526  and  _527
REMARK  216  A    between atoms: _526  and  _529
REMARK  217  A    between atoms: _529  and  _530
REMARK  218  A    between atoms: _533  and  _535
REMARK  219  A    between atoms: _535  and  _536
REMARK  220  A    between atoms: _535  and  _538
REMARK  221  A    between atoms: _541  and  _543
REMARK  222  A    between atoms: _543  and  _544
REMARK  223  A    between atoms: _543  and  _546
REMARK  224  A    between atoms: _546  and  _547
REMARK  225  A    between atoms: _550  and  _552
REMARK  226  A    between atoms: _552  and  _553
REMARK  227  A    between atoms: _552  and  _555
REMARK  228  A    between atoms: _555  and  _556
REMARK  229  A    between atoms: _563  and  _564
REMARK  230  A    between atoms: _569  and  _571
REMARK  231  A    between atoms: _571  and  _572
REMARK  232  A    between atoms: _571  and  _574
REMARK  233  A    between atoms: _574  and  _575
REMARK  234  A    between atoms: _575  and  _576
REMARK  235  A    between atoms: _578  and  _580
REMARK  236  A    between atoms: _580  and  _581
REMARK  237  A    between atoms: _580  and  _583
REMARK  238  A    between atoms: _583  and  _584
REMARK  239  A    between atoms: _584  and  _585
REMARK  240  A    between atoms: _587  and  _589
REMARK  241  A    between atoms: _589  and  _590
REMARK  242  A    between atoms: _593  and  _595
REMARK  243  A    between atoms: _595  and  _596
REMARK  244  A    between atoms: _595  and  _598
REMARK  245  A    between atoms: _598  and  _599
REMARK  246  A    between atoms: _599  and  _600
REMARK  247  A    between atoms: _603  and  _605
REMARK  248  A    between atoms: _605  and  _606
REMARK  249  A    between atoms: _605  and  _608
REMARK  250  A    between atoms: _608  and  _609
REMARK  251  A    between atoms: _612  and  _614
REMARK  252  A    between atoms: _614  and  _615
REMARK  253  A    between atoms: _614  and  _617
REMARK  254  A    between atoms: _617  and  _618
REMARK  255  A    between atoms: _621  and  _623
REMARK  256  A    between atoms: _623  and  _624
REMARK  257  A    between atoms: _623  and  _626
REMARK  258  A    between atoms: _626  and  _627
REMARK  259  A    between atoms: _629  and  _631
REMARK  260  A    between atoms: _631  and  _632
REMARK  261  A    between atoms: _631  and  _634
REMARK  262  A    between atoms: _637  and  _639
REMARK  263  A    between atoms: _639  and  _640
REMARK  264  A    between atoms: _639  and  _642
REMARK  265  A    between atoms: _642  and  _643
REMARK  266  A    between atoms: _643  and  _644
REMARK  267  A    between atoms: _649  and  _651
REMARK  268  A    between atoms: _651  and  _652
REMARK  269  A    between atoms: _651  and  _654
REMARK  270  A    between atoms: _658  and  _659
REMARK  271  A    between atoms: _664  and  _666
REMARK  272  A    between atoms: _666  and  _667
REMARK  273  A    between atoms: _666  and  _669
REMARK  274  A    between atoms: _669  and  _670
REMARK  275  A    between atoms: _670  and  _671
REMARK  276  A    between atoms: _671  and  _672
REMARK  277  A    between atoms: _672  and  _673
REMARK  278  A    between atoms: _677  and  _679
REMARK  279  A    between atoms: _679  and  _680
REMARK  280  A    between atoms: _679  and  _682
REMARK  281  A    between atoms: _682  and  _683
REMARK  282  A    between atoms: _686  and  _688
REMARK  283  A    between atoms: _688  and  _689
REMARK  284  A    between atoms: _688  and  _691
REMARK                            x       y       z     vdW  Elec       q    Type
REMARK                         _______ _______ _______ _____ _____    ______ ____
ROOT
ATOM      1  CA  MET A   9      22.946   7.147   7.922  0.00  0.00    +0.149 C 
ENDROOT
BRANCH   1   4
ATOM      2  C   LEU A   8      21.660   7.461   9.951  0.00  0.00    +0.241 C 
ATOM      3  O   LEU A   8      20.953   8.306   9.414  0.00  0.00    -0.273 OA
ATOM      4  N   MET A   9      22.648   6.845   9.312  0.00  0.00    -0.297 N 
ATOM      5  H   MET A   9      23.218   6.135   9.815  0.00  0.00    +0.150 HD
BRANCH   2   6
ATOM      6  CA  LEU A   8      21.432   7.068  11.409  0.00  0.00    +0.149 C 
BRANCH   6   8
ATOM      7  C   GLY A   7      20.750   4.772  11.028  0.00  0.00    +0.243 C 
ATOM      8  N   LEU A   8      21.594   5.634  11.586  0.00  0.00    -0.297 N 
ATOM      9  H   LEU A   8      22.384   5.276  12.159  0.00  0.00    +0.150 HD
ATOM     10  O   GLY A   7      19.785   5.130  10.344  0.00  0.00    -0.273 OA
BRANCH   7  11
ATOM     11  CA  GLY A   7      21.022   3.297  11.283  0.00  0.00    +0.176 C 
BRANCH  11  13
ATOM     12  C   MET A   6      23.187   3.117  10.222  0.00  0.00    +0.241 C 
ATOM     13  N   GLY A   7      22.424   2.914  11.290  0.00  0.00    -0.295 N 
ATOM     14  H   GLY A   7      22.834   2.477  12.140  0.00  0.00    +0.150 HD
ATOM     15  O   MET A   6      22.768   3.645   9.193  0.00  0.00    -0.273 OA
BRANCH  12  16
ATOM     16  CA  MET A   6      24.646   2.662  10.327  0.00  0.00    +0.149 C 
BRANCH  16  18
ATOM     17  C   TRP A   5      25.481   4.453  11.747  0.00  0.00    +0.241 C 
ATOM     18  N   MET A   6      25.301   3.153  11.536  0.00  0.00    -0.297 N 
ATOM     19  H   MET A   6      25.634   2.471  12.247  0.00  0.00    +0.150 HD
ATOM     20  O   TRP A   5      25.099   5.312  10.944  0.00  0.00    -0.273 OA
BRANCH  17  21
ATOM     21  CA  TRP A   5      26.182   4.858  13.058  0.00  0.00    +0.153 C 
BRANCH  21  23
ATOM     22  C   SER A   4      24.280   4.267  14.498  0.00  0.00    +0.243 C 
ATOM     23  N   TRP A   5      25.587   4.239  14.243  0.00  0.00    -0.297 N 
ATOM     24  H   TRP A   5      26.214   3.755  14.917  0.00  0.00    +0.150 HD
ATOM     25  O   SER A   4      23.469   4.804  13.754  0.00  0.00    -0.273 OA
BRANCH  22  26
ATOM     26  CA  SER A   4      23.802   3.576  15.783  0.00  0.00    +0.178 C 
BRANCH  26  28
ATOM     27  C   TYR A   3      25.318   1.789  16.379  0.00  0.00    +0.241 C 
ATOM     28  N   SER A   4      24.863   3.016  16.602  0.00  0.00    -0.295 N 
ATOM     29  H   SER A   4      25.271   3.583  17.372  0.00  0.00    +0.150 HD
ATOM     30  O   TYR A   3      24.884   1.074  15.475  0.00  0.00    -0.273 OA
BRANCH  27  31
ATOM     31  CA  TYR A   3      26.413   1.290  17.317  0.00  0.00    +0.153 C 
BRANCH  31  33
ATOM     32  C   GLN A   2      28.241   2.701  16.542  0.00  0.00    +0.241 C 
ATOM     33  N   TYR A   3      27.471   2.285  17.541  0.00  0.00    -0.297 N 
ATOM     34  H   TYR A   3      27.619   2.669  18.496  0.00  0.00    +0.150 HD
ATOM     35  O   GLN A   2      28.103   2.292  15.386  0.00  0.00    -0.273 OA
BRANCH  32  36
ATOM     36  CA  GLN A   2      29.312   3.753  16.863  0.00  0.00    +0.149 C 
BRANCH  36  38
ATOM     37  C   ILE A   1      27.868   5.646  17.301  0.00  0.00    +0.238 C 
ATOM     38  N   GLN A   2      28.823   4.823  17.714  0.00  0.00    -0.297 N 
ATOM     39  H   GLN A   2      29.228   4.946  18.664  0.00  0.00    +0.150 HD
ATOM     40  O   ILE A   1      27.341   5.551  16.195  0.00  0.00    -0.274 OA
BRANCH  37  41
ATOM     41  CA  ILE A   1      27.451   6.740  18.284  0.00  0.00    +0.145 C 
BRANCH  41  42
ATOM     42  CB  ILE A   1      28.536   7.851  18.257  0.00  0.00    +0.025 C 
ATOM     43  CG2 ILE A   1      28.820   8.262  16.821  0.00  0.00    +0.002 C 
BRANCH  42  44
ATOM     44  CG1 ILE A   1      28.069   9.069  19.049  0.00  0.00    +0.002 C 
ATOM     45  CD1 ILE A   1      29.130  10.128  19.193  0.00  0.00    +0.000 C 
ENDBRANCH  42  44
ENDBRANCH  41  42
BRANCH  41  46
ATOM     46  N   ILE A   1      27.303   6.162  19.614  0.00  0.00    -0.238 NA
ATOM     47  H   ILE A   1      27.959   6.447  20.369  0.00  0.00    +0.142 HD
ENDBRANCH  41  46
ENDBRANCH  37  41
ENDBRANCH  36  38
BRANCH  36  48
ATOM     48  CB  GLN A   2      30.555   3.126  17.502  0.00  0.00    +0.039 C 
BRANCH  48  49
ATOM     49  CG  GLN A   2      31.839   3.877  17.128  0.00  0.00    +0.087 C 
BRANCH  49  50
ATOM     50  CD  GLN A   2      33.045   3.488  17.967  0.00  0.00    +0.219 C 
ATOM     51  OE1 GLN A   2      33.157   2.360  18.436  0.00  0.00    -0.275 OA
ATOM     52  NE2 GLN A   2      33.965   4.428  18.145  0.00  0.00    -0.329 N 
ATOM     53 HE21 GLN A   2      34.820   4.220  18.700  0.00  0.00    +0.145 HD
ATOM     54 HE22 GLN A   2      33.831   5.372  17.730  0.00  0.00    +0.145 HD
ENDBRANCH  49  50
ENDBRANCH  48  49
ENDBRANCH  36  48
ENDBRANCH  32  36
ENDBRANCH  31  33
BRANCH  31  55
ATOM     55  CB  TYR A   3      25.727   0.893  18.629  0.00  0.00    +0.055 C 
BRANCH  55  56
ATOM     56  CG  TYR A   3      26.618   0.278  19.672  0.00  0.00    -0.020 A 
ATOM     57  CD2 TYR A   3      26.397   0.526  21.021  0.00  0.00    -0.001 A 
ATOM     58  CE2 TYR A   3      27.205  -0.043  22.000  0.00  0.00    +0.036 A 
ATOM     59  CZ  TYR A   3      28.242  -0.868  21.633  0.00  0.00    +0.134 A 
ATOM     60  CE1 TYR A   3      28.487  -1.135  20.297  0.00  0.00    +0.036 A 
ATOM     61  CD1 TYR A   3      27.674  -0.564  19.320  0.00  0.00    -0.001 A 
BRANCH  59  62
ATOM     62  OH  TYR A   3      29.026  -1.430  22.610  0.00  0.00    -0.506 OA
ATOM     63  HH  TYR A   3      29.723  -1.993  22.189  0.00  0.00    +0.292 HD
ENDBRANCH  59  62
ENDBRANCH  55  56
ENDBRANCH  31  55
ENDBRANCH  27  31
ENDBRANCH  26  28
BRANCH  26  64
ATOM     64  CB  SER A   4      22.959   4.547  16.620  0.00  0.00    +0.166 C 
BRANCH  64  65
ATOM     65  OG  SER A   4      23.725   5.661  17.027  0.00  0.00    -0.380 OA
ATOM     66  H   SER A   4      24.490   5.352  17.574  0.00  0.00    +0.211 HD
ENDBRANCH  64  65
ENDBRANCH  26  64
ENDBRANCH  22  26
ENDBRANCH  21  23
BRANCH  21  67
ATOM     67  CB  TRP A   5      27.681   4.501  13.020  0.00  0.00    +0.057 C 
BRANCH  67  68
ATOM     68  CG  TRP A   5      28.474   4.959  11.819  0.00  0.00    -0.002 A 
ATOM     69  CD2 TRP A   5      29.794   4.521  11.449  0.00  0.00    +0.013 A 
ATOM     70  CE3 TRP A   5      30.700   3.595  11.991  0.00  0.00    +0.001 A 
ATOM     71  CZ3 TRP A   5      31.935   3.410  11.359  0.00  0.00    +0.000 A 
ATOM     72  CH2 TRP A   5      32.273   4.138  10.201  0.00  0.00    +0.001 A 
ATOM     73  CZ2 TRP A   5      31.401   5.051   9.650  0.00  0.00    +0.017 A 
ATOM     74  CE2 TRP A   5      30.161   5.233  10.287  0.00  0.00    +0.056 A 
ATOM     75  NE1 TRP A   5      29.118   6.060   9.967  0.00  0.00    -0.352 N 
ATOM     76  HE1 TRP A   5      29.091   6.712   9.157  0.00  0.00    +0.166 HD
ATOM     77  CD1 TRP A   5      28.111   5.890  10.889  0.00  0.00    +0.068 A 
ENDBRANCH  67  68
ENDBRANCH  21  67
ENDBRANCH  17  21
ENDBRANCH  16  18
BRANCH  16  78
ATOM     78  CB  MET A   6      24.704   1.132  10.271  0.00  0.00    +0.041 C 
BRANCH  78  79
ATOM     79  CG  MET A   6      24.186   0.534   8.954  0.00  0.00    +0.060 C 
BRANCH  79  80
ATOM     80  SD  MET A   6      25.222   0.928   7.525  0.00  0.00    -0.139 S 
ATOM     81  CE  MET A   6      26.467  -0.435   7.652  0.00  0.00    +0.069 C 
ENDBRANCH  79  80
ENDBRANCH  78  79
ENDBRANCH  16  78
ENDBRANCH  12  16
ENDBRANCH  11  13
ENDBRANCH   7  11
ENDBRANCH   6   8
BRANCH   6  82
ATOM     82  CB  LEU A   8      22.404   7.823  12.314  0.00  0.00    +0.029 C 
BRANCH  82  83
ATOM     83  CG  LEU A   8      22.170   7.718  13.825  0.00  0.00    +0.002 C 
ATOM     84  CD2 LEU A   8      23.483   7.994  14.574  0.00  0.00    +0.000 C 
ATOM     85  CD1 LEU A   8      21.083   8.687  14.241  0.00  0.00    +0.000 C 
ENDBRANCH  82  83
ENDBRANCH   6  82
ENDBRANCH   2   6
ENDBRANCH   1   4
BRANCH   1  86
ATOM     86  C   MET A   9      21.828   6.689   7.021  0.00  0.00    +0.241 C 
ATOM     87  N   VAL A  10      21.282   5.516   7.331  0.00  0.00    -0.297 N 
ATOM     88  H   VAL A  10      21.648   4.998   8.155  0.00  0.00    +0.150 HD
ATOM     89  O   MET A   9      21.466   7.383   6.070  0.00  0.00    -0.273 OA
BRANCH  87  90
ATOM     90  CA  VAL A  10      20.192   4.928   6.563  0.00  0.00    +0.149 C 
BRANCH  90  91
ATOM     91  C   VAL A  10      18.984   5.850   6.553  0.00  0.00    +0.241 C 
ATOM     92  N   PHE A  11      18.634   6.346   7.731  0.00  0.00    -0.297 N 
ATOM     93  H   PHE A  11      19.200   6.098   8.567  0.00  0.00    +0.150 HD
ATOM     94  O   VAL A  10      18.385   6.098   5.513  0.00  0.00    -0.273 OA
BRANCH  92  95
ATOM     95  CA  PHE A  11      17.491   7.222   7.896  0.00  0.00    +0.153 C 
BRANCH  95  96
ATOM     96  C   PHE A  11      17.669   8.540   7.144  0.00  0.00    +0.241 C 
ATOM     97  N   ALA A  12      18.842   9.150   7.285  0.00  0.00    -0.297 N 
ATOM     98  H   ALA A  12      19.571   8.716   7.886  0.00  0.00    +0.150 HD
ATOM     99  O   PHE A  11      16.769   8.988   6.449  0.00  0.00    -0.273 OA
BRANCH  97 100
ATOM    100  CA  ALA A  12      19.128  10.410   6.617  0.00  0.00    +0.149 C 
ATOM    101  CB  ALA A  12      20.423  11.009   7.168  0.00  0.00    +0.031 C 
BRANCH 100 102
ATOM    102  C   ALA A  12      19.243  10.228   5.104  0.00  0.00    +0.241 C 
ATOM    103  N   MET A  13      19.701   9.057   4.669  0.00  0.00    -0.297 N 
ATOM    104  H   MET A  13      19.945   8.311   5.351  0.00  0.00    +0.150 HD
ATOM    105  O   ALA A  12      18.926  11.133   4.339  0.00  0.00    -0.273 OA
BRANCH 103 106
ATOM    106  CA  MET A  13      19.862   8.816   3.240  0.00  0.00    +0.149 C 
BRANCH 106 107
ATOM    107  C   MET A  13      18.499   8.633   2.589  0.00  0.00    +0.241 C 
ATOM    108  N   GLY A  14      17.584   7.989   3.312  0.00  0.00    -0.295 N 
ATOM    109  H   GLY A  14      17.834   7.634   4.257  0.00  0.00    +0.150 HD
ATOM    110  O   MET A  13      18.280   9.084   1.464  0.00  0.00    -0.273 OA
BRANCH 108 111
ATOM    111  CA  GLY A  14      16.241   7.775   2.799  0.00  0.00    +0.176 C 
BRANCH 111 112
ATOM    112  C   GLY A  14      15.475   9.089   2.698  0.00  0.00    +0.243 C 
ATOM    113  N   TRP A  15      15.705   9.988   3.648  0.00  0.00    -0.297 N 
ATOM    114  H   TRP A  15      16.366   9.768   4.420  0.00  0.00    +0.150 HD
ATOM    115  O   GLY A  14      14.674   9.287   1.783  0.00  0.00    -0.273 OA
BRANCH 113 116
ATOM    116  CA  TRP A  15      15.037  11.276   3.613  0.00  0.00    +0.153 C 
BRANCH 116 117
ATOM    117  C   TRP A  15      15.609  12.060   2.433  0.00  0.00    +0.241 C 
ATOM    118  N   ARG A  16      16.930  12.006   2.250  0.00  0.00    -0.297 N 
ATOM    119  H   ARG A  16      17.512  11.458   2.915  0.00  0.00    +0.150 HD
ATOM    120  O   TRP A  15      14.857  12.669   1.681  0.00  0.00    -0.273 OA
BRANCH 118 121
ATOM    121  CA  ARG A  16      17.579  12.699   1.136  0.00  0.00    +0.149 C 
BRANCH 121 122
ATOM    122  C   ARG A  16      17.070  12.173  -0.193  0.00  0.00    +0.241 C 
ATOM    123  N   SER A  17      16.940  10.857  -0.295  0.00  0.00    -0.296 N 
ATOM    124  H   SER A  17      17.181  10.252   0.516  0.00  0.00    +0.150 HD
ATOM    125  O   ARG A  16      16.815  12.940  -1.115  0.00  0.00    -0.273 OA
BRANCH 123 126
ATOM    126  CA  SER A  17      16.464  10.250  -1.528  0.00  0.00    +0.166 C 
BRANCH 126 127
ATOM    127  C   SER A  17      15.037  10.712  -1.819  0.00  0.00    +0.229 C 
ATOM    128  O   SER A  17      14.671  10.939  -2.976  0.00  0.00    -0.286 OA
ENDBRANCH 126 127
BRANCH 126 129
ATOM    129  CB  SER A  17      16.521   8.722  -1.419  0.00  0.00    +0.165 C 
BRANCH 129 130
ATOM    130  OG  SER A  17      17.855   8.273  -1.227  0.00  0.00    -0.380 OA
ATOM    131  H   SER A  17      18.217   8.664  -0.393  0.00  0.00    +0.211 HD
ENDBRANCH 129 130
ENDBRANCH 126 129
ENDBRANCH 123 126
ENDBRANCH 121 122
BRANCH 121 132
ATOM    132  CB  ARG A  16      19.099  12.505   1.157  0.00  0.00    +0.033 C 
BRANCH 132 133
ATOM    133  CG  ARG A  16      19.834  13.268   2.226  0.00  0.00    +0.045 C 
BRANCH 133 134
ATOM    134  CD  ARG A  16      21.313  13.379   1.871  0.00  0.00    +0.174 C 
BRANCH 134 135
ATOM    135  NE  ARG A  16      21.981  12.079   1.733  0.00  0.00    -0.265 N 
ATOM    136  CZ  ARG A  16      22.413  11.342   2.753  0.00  0.00    +0.342 C 
ATOM    137  NH2 ARG A  16      22.247  11.768   3.996  0.00  0.00    -0.292 N 
ATOM    138 HH21 ARG A  16      22.585  11.191   4.793  0.00  0.00    +0.255 HD
ATOM    139 HH22 ARG A  16      21.779  12.679   4.175  0.00  0.00    +0.255 HD
ATOM    140  NH1 ARG A  16      23.032  10.186   2.530  0.00  0.00    -0.292 N 
ATOM    141 HH11 ARG A  16      23.368   9.613   3.330  0.00  0.00    +0.255 HD
ATOM    142 HH12 ARG A  16      23.180   9.855   1.555  0.00  0.00    +0.255 HD
ATOM    143  HE  ARG A  16      22.127  11.709   0.772  0.00  0.00    +0.259 HD
ENDBRANCH 134 135
ENDBRANCH 133 134
ENDBRANCH 132 133
ENDBRANCH 121 132
ENDBRANCH 118 121
ENDBRANCH 116 117
BRANCH 116 144
ATOM    144  CB  TRP A  15      15.229  12.013   4.947  0.00  0.00    +0.057 C 
BRANCH 144 145
ATOM    145  CG  TRP A  15      14.736  13.424   4.969  0.00  0.00    -0.002 A 
ATOM    146  CD2 TRP A  15      13.376  13.870   5.132  0.00  0.00    +0.013 A 
ATOM    147  CE3 TRP A  15      12.146  13.213   5.297  0.00  0.00    +0.001 A 
ATOM    148  CZ3 TRP A  15      10.989  13.982   5.428  0.00  0.00    +0.000 A 
ATOM    149  CH2 TRP A  15      11.044  15.391   5.400  0.00  0.00    +0.001 A 
ATOM    150  CZ2 TRP A  15      12.237  16.057   5.239  0.00  0.00    +0.017 A 
ATOM    151  CE2 TRP A  15      13.398  15.281   5.105  0.00  0.00    +0.056 A 
ATOM    152  NE1 TRP A  15      14.701  15.666   4.929  0.00  0.00    -0.352 N 
ATOM    153  HE1 TRP A  15      15.036  16.649   4.866  0.00  0.00    +0.166 HD
ATOM    154  CD1 TRP A  15      15.494  14.549   4.849  0.00  0.00    +0.068 A 
ENDBRANCH 144 145
ENDBRANCH 116 144
ENDBRANCH 113 116
ENDBRANCH 111 112
ENDBRANCH 108 111
ENDBRANCH 106 107
BRANCH 106 155
ATOM    155  CB  MET A  13      20.760   7.595   2.998  0.00  0.00    +0.041 C 
BRANCH 155 156
ATOM    156  CG  MET A  13      21.190   7.382   1.544  0.00  0.00    +0.060 C 
BRANCH 156 157
ATOM    157  SD  MET A  13      19.965   6.542   0.507  0.00  0.00    -0.139 S 
ATOM    158  CE  MET A  13      20.428   4.810   0.712  0.00  0.00    +0.069 C 
ENDBRANCH 156 157
ENDBRANCH 155 156
ENDBRANCH 106 155
ENDBRANCH 103 106
ENDBRANCH 100 102
ENDBRANCH  97 100
ENDBRANCH  95  96
BRANCH  95 159
ATOM    159  CB  PHE A  11      17.275   7.501   9.382  0.00  0.00    +0.055 C 
BRANCH 159 160
ATOM    160  CG  PHE A  11      15.885   7.960   9.714  0.00  0.00    -0.020 A 
ATOM    161  CD2 PHE A  11      15.660   9.248  10.188  0.00  0.00    -0.004 A 
ATOM    162  CE2 PHE A  11      14.375   9.671  10.521  0.00  0.00    -0.000 A 
ATOM    163  CZ  PHE A  11      13.298   8.793  10.380  0.00  0.00    -0.000 A 
ATOM    164  CE1 PHE A  11      13.512   7.506   9.902  0.00  0.00    -0.000 A 
ATOM    165  CD1 PHE A  11      14.805   7.096   9.571  0.00  0.00    -0.004 A 
ENDBRANCH 159 160
ENDBRANCH  95 159
ENDBRANCH  92  95
ENDBRANCH  90  91
BRANCH  90 166
ATOM    166  CB  VAL A  10      19.758   3.568   7.168  0.00  0.00    +0.027 C 
ATOM    167  CG2 VAL A  10      20.840   2.515   6.926  0.00  0.00    +0.002 C 
ATOM    168  CG1 VAL A  10      18.442   3.118   6.556  0.00  0.00    +0.002 C 
ENDBRANCH  90 166
ENDBRANCH  87  90
ENDBRANCH   1  86
BRANCH   1 169
ATOM    169  CB  MET A   9      24.255   6.481   7.491  0.00  0.00    +0.041 C 
BRANCH 169 170
ATOM    170  CG  MET A   9      25.470   7.061   8.132  0.00  0.00    +0.060 C 
BRANCH 170 171
ATOM    171  SD  MET A   9      26.959   6.535   7.260  0.00  0.00    -0.139 S 
ATOM    172  CE  MET A   9      26.867   4.808   7.464  0.00  0.00    +0.069 C 
ENDBRANCH 170 171
ENDBRANCH 169 170
ENDBRANCH   1 169
TORSDOF 68
REMARK  Name = ../refined-set-2016/3b68/3b68_pocket.pdb
REMARK  284 active torsions:
REMARK  status: ('A' for Active; 'I' for Inactive)
REMARK    1  A    between atoms: _1  and  _3
REMARK    2  A    between atoms: _3  and  _4
REMARK    3  A    between atoms: _3  and  _6
REMARK    4  A    between atoms: _9  and  _11
REMARK    5  A    between atoms: _11  and  _12
REMARK    6  A    between atoms: _15  and  _17
REMARK    7  A    between atoms: _17  and  _18
REMARK    8  A    between atoms: _17  and  _20
REMARK    9  A    between atoms: _20  and  _21
REMARK   10  A    between atoms: _24  and  _26
REMARK   11  A    between atoms: _26  and  _27
REMARK   12  A    between atoms: _26  and  _29
REMARK   13  A    between atoms: _29  and  _30
REMARK   14  A    between atoms: _33  and  _35
REMARK   15  A    between atoms: _35  and  _36
REMARK   16  A    between atoms: _35  and  _38
REMARK   17  A    between atoms: _38  and  _39
REMARK   18  A    between atoms: _41  and  _43
REMARK   19  A    between atoms: _43  and  _44
REMARK   20  A    between atoms: _43  and  _46
REMARK   21  A    between atoms: _46  and  _47
REMARK   22  A    between atoms: _49  and  _51
REMARK   23  A    between atoms: _51  and  _52
REMARK   24  A    between atoms: _51  and  _54
REMARK   25  A    between atoms: _54  and  _55
REMARK   26  A    between atoms: _58  and  _60
REMARK   27  A    between atoms: _60  and  _61
REMARK   28  A    between atoms: _60  and  _63
REMARK   29  A    between atoms: _63  and  _64
REMARK   30  A    between atoms: _69  and  _71
REMARK   31  A    between atoms: _71  and  _72
REMARK   32  A    between atoms: _71  and  _74
REMARK   33  A    between atoms: _74  and  _75
REMARK   34  A    between atoms: _75  and  _76
REMARK   35  A    between atoms: _79  and  _81
REMARK   36  A    between atoms: _81  and  _82
REMARK   37  A    between atoms: _81  and  _84
REMARK   38  A    between atoms: _84  and  _85
REMARK   39  A    between atoms: _88  and  _90
REMARK   40  A    between atoms: _90  and  _91
REMARK   41  A    between atoms: _93  and  _95
REMARK   42  A    between atoms: _95  and  _96
REMARK   43  A    between atoms: _95  and  _98
REMARK   44  A    between atoms: _98  and  _99
REMARK   45  A    between atoms: _99  and  _100
REMARK   46  A    between atoms: _103  and  _105
REMARK   47  A    between atoms: _105  and  _106
REMARK   48  A    between atoms: _105  and  _108
REMARK   49  A    between atoms: _108  and  _109
REMARK   50  A    between atoms: _109  and  _110
REMARK   51  A    between atoms: _110  and  _111
REMARK   52  A    between atoms: _120  and  _122
REMARK   53  A    between atoms: _122  and  _123
REMARK   54  A    between atoms: _122  and  _125
REMARK   55  A    between atoms: _125  and  _126
REMARK   56  A    between atoms: _126  and  _127
REMARK   57  A    between atoms: _132  and  _134
REMARK   58  A    between atoms: _134  and  _135
REMARK   59  A    between atoms: _134  and  _137
REMARK   60  A    between atoms: _137  and  _138
REMARK   61  A    between atoms: _141  and  _143
REMARK   62  A    between atoms: _143  and  _144
REMARK   63  A    between atoms: _147  and  _149
REMARK   64  A    between atoms: _149  and  _150
REMARK   65  A    between atoms: _149  and  _152
REMARK   66  A    between atoms: _152  and  _153
REMARK   67  A    between atoms: _156  and  _158
REMARK   68  A    between atoms: _158  and  _159
REMARK   69  A    between atoms: _158  and  _161
REMARK   70  A    between atoms: _161  and  _162
REMARK   71  A    between atoms: _162  and  _163
REMARK   72  A    between atoms: _168  and  _170
REMARK   73  A    between atoms: _170  and  _171
REMARK   74  A    between atoms: _170  and  _173
REMARK   75  A    between atoms: _173  and  _174
REMARK   76  A    between atoms: _179  and  _180
REMARK   77  A    between atoms: _182  and  _184
REMARK   78  A    between atoms: _184  and  _185
REMARK   79  A    between atoms: _184  and  _187
REMARK   80  A    between atoms: _187  and  _188
REMARK   81  A    between atoms: _190  and  _192
REMARK   82  A    between atoms: _192  and  _193
REMARK   83  A    between atoms: _192  and  _195
REMARK   84  A    between atoms: _195  and  _196
REMARK   85  A    between atoms: _206  and  _208
REMARK   86  A    between atoms: _208  and  _209
REMARK   87  A    between atoms: _208  and  _211
REMARK   88  A    between atoms: _211  and  _212
REMARK   89  A    between atoms: _212  and  _213
REMARK   90  A    between atoms: _215  and  _217
REMARK   91  A    between atoms: _217  and  _218
REMARK   92  A    between atoms: _220  and  _222
REMARK   93  A    between atoms: _222  and  _223
REMARK   94  A    between atoms: _222  and  _225
REMARK   95  A    between atoms: _225  and  _226
REMARK   96  A    between atoms: _229  and  _231
REMARK   97  A    between atoms: _231  and  _232
REMARK   98  A    between atoms: _231  and  _234
REMARK   99  A    between atoms: _234  and  _235
REMARK  100  A    between atoms: _235  and  _236
REMARK  101  A    between atoms: _238  and  _240
REMARK  102  A    between atoms: _240  and  _241
REMARK  103  A    between atoms: _240  and  _243
REMARK  104  A    between atoms: _246  and  _248
REMARK  105  A    between atoms: _248  and  _249
REMARK  106  A    between atoms: _248  and  _251
REMARK  107  A    between atoms: _251  and  _252
REMARK  108  A    between atoms: _258  and  _260
REMARK  109  A    between atoms: _260  and  _261
REMARK  110  A    between atoms: _264  and  _266
REMARK  111  A    between atoms: _266  and  _267
REMARK  112  A    between atoms: _266  and  _269
REMARK  113  A    between atoms: _269  and  _270
REMARK  114  A    between atoms: _270  and  _271
REMARK  115  A    between atoms: _273  and  _275
REMARK  116  A    between atoms: _275  and  _276
REMARK  117  A    between atoms: _278  and  _280
REMARK  118  A    between atoms: _280  and  _281
REMARK  119  A    between atoms: _280  and  _283
REMARK  120  A    between atoms: _283  and  _284
REMARK  121  A    between atoms: _294  and  _296
REMARK  122  A    between atoms: _296  and  _297
REMARK  123  A    between atoms: _296  and  _299
REMARK  124  A    between atoms: _299  and  _300
REMARK  125  A    between atoms: _300  and  _301
REMARK  126  A    between atoms: _301  and  _302
REMARK  127  A    between atoms: _311  and  _313
REMARK  128  A    between atoms: _313  and  _314
REMARK  129  A    between atoms: _313  and  _316
REMARK  130  A    between atoms: _316  and  _317
REMARK  131  A    between atoms: _319  and  _321
REMARK  132  A    between atoms: _321  and  _322
REMARK  133  A    between atoms: _321  and  _324
REMARK  134  A    between atoms: _324  and  _325
REMARK  135  A    between atoms: _328  and  _330
REMARK  136  A    between atoms: _330  and  _331
REMARK  137  A    between atoms: _330  and  _333
REMARK  138  A    between atoms: _333  and  _334
REMARK  139  A    between atoms: _339  and  _340
REMARK  140  A    between atoms: _342  and  _344
REMARK  141  A    between atoms: _344  and  _345
REMARK  142  A    between atoms: _344  and  _347
REMARK  143  A    between atoms: _347  and  _348
REMARK  144  A    between atoms: _354  and  _356
REMARK  145  A    between atoms: _356  and  _357
REMARK  146  A    between atoms: _361  and  _362
REMARK  147  A    between atoms: _367  and  _369
REMARK  148  A    between atoms: _369  and  _370
REMARK  149  A    between atoms: _369  and  _372
REMARK  150  A    between atoms: _372  and  _373
REMARK  151  A    between atoms: _376  and  _378
REMARK  152  A    between atoms: _378  and  _379
REMARK  153  A    between atoms: _378  and  _381
REMARK  154  A    between atoms: _381  and  _382
REMARK  155  A    between atoms: _384  and  _386
REMARK  156  A    between atoms: _386  and  _387
REMARK  157  A    between atoms: _386  and  _389
REMARK  158  A    between atoms: _389  and  _390
REMARK  159  A    between atoms: _390  and  _391
REMARK  160  A    between atoms: _393  and  _395
REMARK  161  A    between atoms: _395  and  _396
REMARK  162  A    between atoms: _395  and  _398
REMARK  163  A    between atoms: _398  and  _399
REMARK  164  A    between atoms: _399  and  _400
REMARK  165  A    between atoms: _405  and  _407
REMARK  166  A    between atoms: _407  and  _408
REMARK  167  A    between atoms: _407  and  _410
REMARK  168  A    between atoms: _412  and  _414
REMARK  169  A    between atoms: _414  and  _415
REMARK  170  A    between atoms: _414  and  _417
REMARK  171  A    between atoms: _417  and  _418
REMARK  172  A    between atoms: _418  and  _419
REMARK  173  A    between atoms: _421  and  _423
REMARK  174  A    between atoms: _423  and  _424
REMARK  175  A    between atoms: _423  and  _426
REMARK  176  A    between atoms: _426  and  _427
REMARK  177  A    between atoms: _430  and  _432
REMARK  178  A    between atoms: _432  and  _433
REMARK  179  A    between atoms: _432  and  _435
REMARK  180  A    between atoms: _435  and  _436
REMARK  181  A    between atoms: _439  and  _441
REMARK  182  A    between atoms: _441  and  _442
REMARK  183  A    between atoms: _441  and  _444
REMARK  184  A    between atoms: _447  and  _449
REMARK  185  A    between atoms: _449  and  _450
REMARK  186  A    between atoms: _449  and  _452
REMARK  187  A    between atoms: _452  and  _453
REMARK  188  A    between atoms: _456  and  _458
REMARK  189  A    between atoms: _458  and  _459
REMARK  190  A    between atoms: _462  and  _464
REMARK  191  A    between atoms: _464  and  _465
REMARK  192  A    between atoms: _464  and  _467
REMARK  193  A    between atoms: _467  and  _468
REMARK  194  A    between atoms: _471  and  _473
REMARK  195  A    between atoms: _473  and  _474
REMARK  196  A    between atoms: _473  and  _476
REMARK  197  A    between atoms: _476  and  _477
REMARK  198  A    between atoms: _482  and  _484
REMARK  199  A    between atoms: _484  and  _485
REMARK  200  A    between atoms: _484  and  _487
REMARK  201  A    between atoms: _487  and  _488
REMARK  202  A    between atoms: _494  and  _496
REMARK  203  A    between atoms: _496  and  _497
REMARK  204  A    between atoms: _496  and  _499
REMARK  205  A    between atoms: _499  and  _500
REMARK  206  A    between atoms: _503  and  _505
REMARK  207  A    between atoms: _505  and  _506
REMARK  208  A    between atoms: _505  and  _508
REMARK  209  A    between atoms: _508  and  _509
REMARK  210  A    between atoms: _515  and  _517
REMARK  211  A    between atoms: _517  and  _518
REMARK  212  A    between atoms: _517  and  _520
REMARK  213  A    between atoms: _520  and  _521
REMARK  214  A    between atoms: _524  and  _526
REMARK  215  A    between atoms: _526  and  _527
REMARK  216  A    between atoms: _526  and  _529
REMARK  217  A    between atoms: _529  and  _530
REMARK  218  A    between atoms: _533  and  _535
REMARK  219  A    between atoms: _535  and  _536
REMARK  220  A    between atoms: _535  and  _538
REMARK  221  A    between atoms: _541  and  _543
REMARK  222  A    between atoms: _543  and  _544
REMARK  223  A    between atoms: _543  and  _546
REMARK  224  A    between atoms: _546  and  _547
REMARK  225  A    between atoms: _550  and  _552
REMARK  226  A    between atoms: _552  and  _553
REMARK  227  A    between atoms: _552  and  _555
REMARK  228  A    between atoms: _555  and  _556
REMARK  229  A    between atoms: _563  and  _564
REMARK  230  A    between atoms: _569  and  _571
REMARK  231  A    between atoms: _571  and  _572
REMARK  232  A    between atoms: _571  and  _574
REMARK  233  A    between atoms: _574  and  _575
REMARK  234  A    between atoms: _575  and  _576
REMARK  235  A    between atoms: _578  and  _580
REMARK  236  A    between atoms: _580  and  _581
REMARK  237  A    between atoms: _580  and  _583
REMARK  238  A    between atoms: _583  and  _584
REMARK  239  A    between atoms: _584  and  _585
REMARK  240  A    between atoms: _587  and  _589
REMARK  241  A    between atoms: _589  and  _590
REMARK  242  A    between atoms: _593  and  _595
REMARK  243  A    between atoms: _595  and  _596
REMARK  244  A    between atoms: _595  and  _598
REMARK  245  A    between atoms: _598  and  _599
REMARK  246  A    between atoms: _599  and  _600
REMARK  247  A    between atoms: _603  and  _605
REMARK  248  A    between atoms: _605  and  _606
REMARK  249  A    between atoms: _605  and  _608
REMARK  250  A    between atoms: _608  and  _609
REMARK  251  A    between atoms: _612  and  _614
REMARK  252  A    between atoms: _614  and  _615
REMARK  253  A    between atoms: _614  and  _617
REMARK  254  A    between atoms: _617  and  _618
REMARK  255  A    between atoms: _621  and  _623
REMARK  256  A    between atoms: _623  and  _624
REMARK  257  A    between atoms: _623  and  _626
REMARK  258  A    between atoms: _626  and  _627
REMARK  259  A    between atoms: _629  and  _631
REMARK  260  A    between atoms: _631  and  _632
REMARK  261  A    between atoms: _631  and  _634
REMARK  262  A    between atoms: _637  and  _639
REMARK  263  A    between atoms: _639  and  _640
REMARK  264  A    between atoms: _639  and  _642
REMARK  265  A    between atoms: _642  and  _643
REMARK  266  A    between atoms: _643  and  _644
REMARK  267  A    between atoms: _649  and  _651
REMARK  268  A    between atoms: _651  and  _652
REMARK  269  A    between atoms: _651  and  _654
REMARK  270  A    between atoms: _658  and  _659
REMARK  271  A    between atoms: _664  and  _666
REMARK  272  A    between atoms: _666  and  _667
REMARK  273  A    between atoms: _666  and  _669
REMARK  274  A    between atoms: _669  and  _670
REMARK  275  A    between atoms: _670  and  _671
REMARK  276  A    between atoms: _671  and  _672
REMARK  277  A    between atoms: _672  and  _673
REMARK  278  A    between atoms: _677  and  _679
REMARK  279  A    between atoms: _679  and  _680
REMARK  280  A    between atoms: _679  and  _682
REMARK  281  A    between atoms: _682  and  _683
REMARK  282  A    between atoms: _686  and  _688
REMARK  283  A    between atoms: _688  and  _689
REMARK  284  A    between atoms: _688  and  _691
REMARK                            x       y       z     vdW  Elec       q    Type
REMARK                         _______ _______ _______ _____ _____    ______ ____
ROOT
ATOM      1  C   TYR A   2      21.883   9.437  -1.671  0.00  0.00    +0.241 C 
ATOM      2  O   TYR A   2      21.747  10.076  -0.630  0.00  0.00    -0.273 OA
ATOM      3  N   PHE A   3      22.892   8.586  -1.845  0.00  0.00    -0.297 N 
ATOM      4  H   PHE A   3      22.974   8.041  -2.727  0.00  0.00    +0.150 HD
ENDROOT
BRANCH   3   5
ATOM      5  CA  PHE A   3      23.885   8.425  -0.782  0.00  0.00    +0.153 C 
BRANCH   5   6
ATOM      6  C   PHE A   3      24.629   9.743  -0.599  0.00  0.00    +0.241 C 
ATOM      7  O   PHE A   3      24.968  10.150   0.514  0.00  0.00    -0.273 OA
ATOM      8  N   ALA A   4      24.882  10.402  -1.714  0.00  0.00    -0.297 N 
ATOM      9  H   ALA A   4      24.569   9.998  -2.620  0.00  0.00    +0.150 HD
BRANCH   8  10
ATOM     10  CA  ALA A   4      25.578  11.664  -1.717  0.00  0.00    +0.149 C 
ATOM     11  CB  ALA A   4      27.069  11.442  -1.458  0.00  0.00    +0.031 C 
BRANCH  10  12
ATOM     12  C   ALA A   4      25.357  12.226  -3.107  0.00  0.00    +0.244 C 
ATOM     13  N   PRO A   5      25.577  13.539  -3.283  0.00  0.00    -0.273 N 
ATOM     14  CD  PRO A   5      25.922  14.533  -2.253  0.00  0.00    +0.094 C 
ATOM     15  CG  PRO A   5      25.523  15.827  -2.918  0.00  0.00    +0.024 C 
ATOM     16  CB  PRO A   5      25.914  15.591  -4.343  0.00  0.00    +0.030 C 
ATOM     17  CA  PRO A   5      25.395  14.181  -4.586  0.00  0.00    +0.140 C 
ATOM     18  O   ALA A   4      24.976  11.496  -4.020  0.00  0.00    -0.273 OA
BRANCH  17  19
ATOM     19  C   PRO A   5      26.181  13.457  -5.681  0.00  0.00    +0.227 C 
ATOM     20  O   PRO A   5      25.689  13.271  -6.797  0.00  0.00    -0.286 OA
ENDBRANCH  17  19
ENDBRANCH  10  12
ENDBRANCH   8  10
ENDBRANCH   5   6
BRANCH   5  21
ATOM     21  CB  PHE A   3      24.896   7.329  -1.115  0.00  0.00    +0.055 C 
BRANCH  21  22
ATOM     22  CG  PHE A   3      24.346   5.939  -1.026  0.00  0.00    -0.020 A 
ATOM     23  CD2 PHE A   3      24.451   5.210   0.156  0.00  0.00    -0.004 A 
ATOM     24  CE2 PHE A   3      23.979   3.897   0.229  0.00  0.00    -0.000 A 
ATOM     25  CZ  PHE A   3      23.400   3.312  -0.884  0.00  0.00    -0.000 A 
ATOM     26  CE1 PHE A   3      23.288   4.032  -2.063  0.00  0.00    -0.000 A 
ATOM     27  CD1 PHE A   3      23.757   5.338  -2.130  0.00  0.00    -0.004 A 
ENDBRANCH  21  22
ENDBRANCH   5  21
ENDBRANCH   3   5
BRANCH   1  28
ATOM     28  CA  TYR A   2      20.867   9.594  -2.810  0.00  0.00    +0.153 C 
BRANCH  28  30
ATOM     29  C   LEU A   1      20.294   7.321  -3.542  0.00  0.00    +0.238 C 
ATOM     30  N   TYR A   2      19.987   8.443  -2.903  0.00  0.00    -0.297 N 
ATOM     31  H   TYR A   2      19.058   8.501  -2.440  0.00  0.00    +0.150 HD
ATOM     32  O   LEU A   1      21.363   7.122  -4.117  0.00  0.00    -0.274 OA
BRANCH  29  33
ATOM     33  CA  LEU A   1      19.210   6.266  -3.528  0.00  0.00    +0.145 C 
BRANCH  33  34
ATOM     34  N   LEU A   1      18.728   6.112  -4.895  0.00  0.00    -0.238 NA
ATOM     35  H   LEU A   1      19.265   5.529  -5.568  0.00  0.00    +0.142 HD
ENDBRANCH  33  34
BRANCH  33  36
ATOM     36  CB  LEU A   1      19.766   4.948  -2.991  0.00  0.00    +0.026 C 
BRANCH  36  37
ATOM     37  CG  LEU A   1      18.755   3.821  -2.840  0.00  0.00    +0.002 C 
ATOM     38  CD2 LEU A   1      17.706   4.203  -1.810  0.00  0.00    +0.000 C 
ATOM     39  CD1 LEU A   1      19.467   2.556  -2.447  0.00  0.00    +0.000 C 
ENDBRANCH  36  37
ENDBRANCH  33  36
ENDBRANCH  29  33
ENDBRANCH  28  30
BRANCH  28  40
ATOM     40  CB  TYR A   2      19.999  10.835  -2.563  0.00  0.00    +0.055 C 
BRANCH  40  41
ATOM     41  CG  TYR A   2      20.605  12.139  -2.993  0.00  0.00    -0.020 A 
ATOM     42  CD2 TYR A   2      21.248  12.968  -2.072  0.00  0.00    -0.001 A 
ATOM     43  CE2 TYR A   2      21.811  14.176  -2.469  0.00  0.00    +0.036 A 
ATOM     44  CZ  TYR A   2      21.728  14.564  -3.803  0.00  0.00    +0.134 A 
ATOM     45  CE1 TYR A   2      21.099  13.760  -4.737  0.00  0.00    +0.036 A 
ATOM     46  CD1 TYR A   2      20.540  12.550  -4.329  0.00  0.00    -0.001 A 
BRANCH  44  47
ATOM     47  OH  TYR A   2      22.251  15.767  -4.195  0.00  0.00    -0.506 OA
ATOM     48  HH  TYR A   2      22.108  15.886  -5.167  0.00  0.00    +0.292 HD
ENDBRANCH  44  47
ENDBRANCH  40  41
ENDBRANCH  28  40
ENDBRANCH   1  28
TORSDOF 16
REMARK  Name = ../refined-set-2016/3b68/3b68_pocket.pdb
REMARK  284 active torsions:
REMARK  status: ('A' for Active; 'I' for Inactive)
REMARK    1  A    between atoms: _1  and  _3
REMARK    2  A    between atoms: _3  and  _4
REMARK    3  A    between atoms: _3  and  _6
REMARK    4  A    between atoms: _9  and  _11
REMARK    5  A    between atoms: _11  and  _12
REMARK    6  A    between atoms: _15  and  _17
REMARK    7  A    between atoms: _17  and  _18
REMARK    8  A    between atoms: _17  and  _20
REMARK    9  A    between atoms: _20  and  _21
REMARK   10  A    between atoms: _24  and  _26
REMARK   11  A    between atoms: _26  and  _27
REMARK   12  A    between atoms: _26  and  _29
REMARK   13  A    between atoms: _29  and  _30
REMARK   14  A    between atoms: _33  and  _35
REMARK   15  A    between atoms: _35  and  _36
REMARK   16  A    between atoms: _35  and  _38
REMARK   17  A    between atoms: _38  and  _39
REMARK   18  A    between atoms: _41  and  _43
REMARK   19  A    between atoms: _43  and  _44
REMARK   20  A    between atoms: _43  and  _46
REMARK   21  A    between atoms: _46  and  _47
REMARK   22  A    between atoms: _49  and  _51
REMARK   23  A    between atoms: _51  and  _52
REMARK   24  A    between atoms: _51  and  _54
REMARK   25  A    between atoms: _54  and  _55
REMARK   26  A    between atoms: _58  and  _60
REMARK   27  A    between atoms: _60  and  _61
REMARK   28  A    between atoms: _60  and  _63
REMARK   29  A    between atoms: _63  and  _64
REMARK   30  A    between atoms: _69  and  _71
REMARK   31  A    between atoms: _71  and  _72
REMARK   32  A    between atoms: _71  and  _74
REMARK   33  A    between atoms: _74  and  _75
REMARK   34  A    between atoms: _75  and  _76
REMARK   35  A    between atoms: _79  and  _81
REMARK   36  A    between atoms: _81  and  _82
REMARK   37  A    between atoms: _81  and  _84
REMARK   38  A    between atoms: _84  and  _85
REMARK   39  A    between atoms: _88  and  _90
REMARK   40  A    between atoms: _90  and  _91
REMARK   41  A    between atoms: _93  and  _95
REMARK   42  A    between atoms: _95  and  _96
REMARK   43  A    between atoms: _95  and  _98
REMARK   44  A    between atoms: _98  and  _99
REMARK   45  A    between atoms: _99  and  _100
REMARK   46  A    between atoms: _103  and  _105
REMARK   47  A    between atoms: _105  and  _106
REMARK   48  A    between atoms: _105  and  _108
REMARK   49  A    between atoms: _108  and  _109
REMARK   50  A    between atoms: _109  and  _110
REMARK   51  A    between atoms: _110  and  _111
REMARK   52  A    between atoms: _120  and  _122
REMARK   53  A    between atoms: _122  and  _123
REMARK   54  A    between atoms: _122  and  _125
REMARK   55  A    between atoms: _125  and  _126
REMARK   56  A    between atoms: _126  and  _127
REMARK   57  A    between atoms: _132  and  _134
REMARK   58  A    between atoms: _134  and  _135
REMARK   59  A    between atoms: _134  and  _137
REMARK   60  A    between atoms: _137  and  _138
REMARK   61  A    between atoms: _141  and  _143
REMARK   62  A    between atoms: _143  and  _144
REMARK   63  A    between atoms: _147  and  _149
REMARK   64  A    between atoms: _149  and  _150
REMARK   65  A    between atoms: _149  and  _152
REMARK   66  A    between atoms: _152  and  _153
REMARK   67  A    between atoms: _156  and  _158
REMARK   68  A    between atoms: _158  and  _159
REMARK   69  A    between atoms: _158  and  _161
REMARK   70  A    between atoms: _161  and  _162
REMARK   71  A    between atoms: _162  and  _163
REMARK   72  A    between atoms: _168  and  _170
REMARK   73  A    between atoms: _170  and  _171
REMARK   74  A    between atoms: _170  and  _173
REMARK   75  A    between atoms: _173  and  _174
REMARK   76  A    between atoms: _179  and  _180
REMARK   77  A    between atoms: _182  and  _184
REMARK   78  A    between atoms: _184  and  _185
REMARK   79  A    between atoms: _184  and  _187
REMARK   80  A    between atoms: _187  and  _188
REMARK   81  A    between atoms: _190  and  _192
REMARK   82  A    between atoms: _192  and  _193
REMARK   83  A    between atoms: _192  and  _195
REMARK   84  A    between atoms: _195  and  _196
REMARK   85  A    between atoms: _206  and  _208
REMARK   86  A    between atoms: _208  and  _209
REMARK   87  A    between atoms: _208  and  _211
REMARK   88  A    between atoms: _211  and  _212
REMARK   89  A    between atoms: _212  and  _213
REMARK   90  A    between atoms: _215  and  _217
REMARK   91  A    between atoms: _217  and  _218
REMARK   92  A    between atoms: _220  and  _222
REMARK   93  A    between atoms: _222  and  _223
REMARK   94  A    between atoms: _222  and  _225
REMARK   95  A    between atoms: _225  and  _226
REMARK   96  A    between atoms: _229  and  _231
REMARK   97  A    between atoms: _231  and  _232
REMARK   98  A    between atoms: _231  and  _234
REMARK   99  A    between atoms: _234  and  _235
REMARK  100  A    between atoms: _235  and  _236
REMARK  101  A    between atoms: _238  and  _240
REMARK  102  A    between atoms: _240  and  _241
REMARK  103  A    between atoms: _240  and  _243
REMARK  104  A    between atoms: _246  and  _248
REMARK  105  A    between atoms: _248  and  _249
REMARK  106  A    between atoms: _248  and  _251
REMARK  107  A    between atoms: _251  and  _252
REMARK  108  A    between atoms: _258  and  _260
REMARK  109  A    between atoms: _260  and  _261
REMARK  110  A    between atoms: _264  and  _266
REMARK  111  A    between atoms: _266  and  _267
REMARK  112  A    between atoms: _266  and  _269
REMARK  113  A    between atoms: _269  and  _270
REMARK  114  A    between atoms: _270  and  _271
REMARK  115  A    between atoms: _273  and  _275
REMARK  116  A    between atoms: _275  and  _276
REMARK  117  A    between atoms: _278  and  _280
REMARK  118  A    between atoms: _280  and  _281
REMARK  119  A    between atoms: _280  and  _283
REMARK  120  A    between atoms: _283  and  _284
REMARK  121  A    between atoms: _294  and  _296
REMARK  122  A    between atoms: _296  and  _297
REMARK  123  A    between atoms: _296  and  _299
REMARK  124  A    between atoms: _299  and  _300
REMARK  125  A    between atoms: _300  and  _301
REMARK  126  A    between atoms: _301  and  _302
REMARK  127  A    between atoms: _311  and  _313
REMARK  128  A    between atoms: _313  and  _314
REMARK  129  A    between atoms: _313  and  _316
REMARK  130  A    between atoms: _316  and  _317
REMARK  131  A    between atoms: _319  and  _321
REMARK  132  A    between atoms: _321  and  _322
REMARK  133  A    between atoms: _321  and  _324
REMARK  134  A    between atoms: _324  and  _325
REMARK  135  A    between atoms: _328  and  _330
REMARK  136  A    between atoms: _330  and  _331
REMARK  137  A    between atoms: _330  and  _333
REMARK  138  A    between atoms: _333  and  _334
REMARK  139  A    between atoms: _339  and  _340
REMARK  140  A    between atoms: _342  and  _344
REMARK  141  A    between atoms: _344  and  _345
REMARK  142  A    between atoms: _344  and  _347
REMARK  143  A    between atoms: _347  and  _348
REMARK  144  A    between atoms: _354  and  _356
REMARK  145  A    between atoms: _356  and  _357
REMARK  146  A    between atoms: _361  and  _362
REMARK  147  A    between atoms: _367  and  _369
REMARK  148  A    between atoms: _369  and  _370
REMARK  149  A    between atoms: _369  and  _372
REMARK  150  A    between atoms: _372  and  _373
REMARK  151  A    between atoms: _376  and  _378
REMARK  152  A    between atoms: _378  and  _379
REMARK  153  A    between atoms: _378  and  _381
REMARK  154  A    between atoms: _381  and  _382
REMARK  155  A    between atoms: _384  and  _386
REMARK  156  A    between atoms: _386  and  _387
REMARK  157  A    between atoms: _386  and  _389
REMARK  158  A    between atoms: _389  and  _390
REMARK  159  A    between atoms: _390  and  _391
REMARK  160  A    between atoms: _393  and  _395
REMARK  161  A    between atoms: _395  and  _396
REMARK  162  A    between atoms: _395  and  _398
REMARK  163  A    between atoms: _398  and  _399
REMARK  164  A    between atoms: _399  and  _400
REMARK  165  A    between atoms: _405  and  _407
REMARK  166  A    between atoms: _407  and  _408
REMARK  167  A    between atoms: _407  and  _410
REMARK  168  A    between atoms: _412  and  _414
REMARK  169  A    between atoms: _414  and  _415
REMARK  170  A    between atoms: _414  and  _417
REMARK  171  A    between atoms: _417  and  _418
REMARK  172  A    between atoms: _418  and  _419
REMARK  173  A    between atoms: _421  and  _423
REMARK  174  A    between atoms: _423  and  _424
REMARK  175  A    between atoms: _423  and  _426
REMARK  176  A    between atoms: _426  and  _427
REMARK  177  A    between atoms: _430  and  _432
REMARK  178  A    between atoms: _432  and  _433
REMARK  179  A    between atoms: _432  and  _435
REMARK  180  A    between atoms: _435  and  _436
REMARK  181  A    between atoms: _439  and  _441
REMARK  182  A    between atoms: _441  and  _442
REMARK  183  A    between atoms: _441  and  _444
REMARK  184  A    between atoms: _447  and  _449
REMARK  185  A    between atoms: _449  and  _450
REMARK  186  A    between atoms: _449  and  _452
REMARK  187  A    between atoms: _452  and  _453
REMARK  188  A    between atoms: _456  and  _458
REMARK  189  A    between atoms: _458  and  _459
REMARK  190  A    between atoms: _462  and  _464
REMARK  191  A    between atoms: _464  and  _465
REMARK  192  A    between atoms: _464  and  _467
REMARK  193  A    between atoms: _467  and  _468
REMARK  194  A    between atoms: _471  and  _473
REMARK  195  A    between atoms: _473  and  _474
REMARK  196  A    between atoms: _473  and  _476
REMARK  197  A    between atoms: _476  and  _477
REMARK  198  A    between atoms: _482  and  _484
REMARK  199  A    between atoms: _484  and  _485
REMARK  200  A    between atoms: _484  and  _487
REMARK  201  A    between atoms: _487  and  _488
REMARK  202  A    between atoms: _494  and  _496
REMARK  203  A    between atoms: _496  and  _497
REMARK  204  A    between atoms: _496  and  _499
REMARK  205  A    between atoms: _499  and  _500
REMARK  206  A    between atoms: _503  and  _505
REMARK  207  A    between atoms: _505  and  _506
REMARK  208  A    between atoms: _505  and  _508
REMARK  209  A    between atoms: _508  and  _509
REMARK  210  A    between atoms: _515  and  _517
REMARK  211  A    between atoms: _517  and  _518
REMARK  212  A    between atoms: _517  and  _520
REMARK  213  A    between atoms: _520  and  _521
REMARK  214  A    between atoms: _524  and  _526
REMARK  215  A    between atoms: _526  and  _527
REMARK  216  A    between atoms: _526  and  _529
REMARK  217  A    between atoms: _529  and  _530
REMARK  218  A    between atoms: _533  and  _535
REMARK  219  A    between atoms: _535  and  _536
REMARK  220  A    between atoms: _535  and  _538
REMARK  221  A    between atoms: _541  and  _543
REMARK  222  A    between atoms: _543  and  _544
REMARK  223  A    between atoms: _543  and  _546
REMARK  224  A    between atoms: _546  and  _547
REMARK  225  A    between atoms: _550  and  _552
REMARK  226  A    between atoms: _552  and  _553
REMARK  227  A    between atoms: _552  and  _555
REMARK  228  A    between atoms: _555  and  _556
REMARK  229  A    between atoms: _563  and  _564
REMARK  230  A    between atoms: _569  and  _571
REMARK  231  A    between atoms: _571  and  _572
REMARK  232  A    between atoms: _571  and  _574
REMARK  233  A    between atoms: _574  and  _575
REMARK  234  A    between atoms: _575  and  _576
REMARK  235  A    between atoms: _578  and  _580
REMARK  236  A    between atoms: _580  and  _581
REMARK  237  A    between atoms: _580  and  _583
REMARK  238  A    between atoms: _583  and  _584
REMARK  239  A    between atoms: _584  and  _585
REMARK  240  A    between atoms: _587  and  _589
REMARK  241  A    between atoms: _589  and  _590
REMARK  242  A    between atoms: _593  and  _595
REMARK  243  A    between atoms: _595  and  _596
REMARK  244  A    between atoms: _595  and  _598
REMARK  245  A    between atoms: _598  and  _599
REMARK  246  A    between atoms: _599  and  _600
REMARK  247  A    between atoms: _603  and  _605
REMARK  248  A    between atoms: _605  and  _606
REMARK  249  A    between atoms: _605  and  _608
REMARK  250  A    between atoms: _608  and  _609
REMARK  251  A    between atoms: _612  and  _614
REMARK  252  A    between atoms: _614  and  _615
REMARK  253  A    between atoms: _614  and  _617
REMARK  254  A    between atoms: _617  and  _618
REMARK  255  A    between atoms: _621  and  _623
REMARK  256  A    between atoms: _623  and  _624
REMARK  257  A    between atoms: _623  and  _626
REMARK  258  A    between atoms: _626  and  _627
REMARK  259  A    between atoms: _629  and  _631
REMARK  260  A    between atoms: _631  and  _632
REMARK  261  A    between atoms: _631  and  _634
REMARK  262  A    between atoms: _637  and  _639
REMARK  263  A    between atoms: _639  and  _640
REMARK  264  A    between atoms: _639  and  _642
REMARK  265  A    between atoms: _642  and  _643
REMARK  266  A    between atoms: _643  and  _644
REMARK  267  A    between atoms: _649  and  _651
REMARK  268  A    between atoms: _651  and  _652
REMARK  269  A    between atoms: _651  and  _654
REMARK  270  A    between atoms: _658  and  _659
REMARK  271  A    between atoms: _664  and  _666
REMARK  272  A    between atoms: _666  and  _667
REMARK  273  A    between atoms: _666  and  _669
REMARK  274  A    between atoms: _669  and  _670
REMARK  275  A    between atoms: _670  and  _671
REMARK  276  A    between atoms: _671  and  _672
REMARK  277  A    between atoms: _672  and  _673
REMARK  278  A    between atoms: _677  and  _679
REMARK  279  A    between atoms: _679  and  _680
REMARK  280  A    between atoms: _679  and  _682
REMARK  281  A    between atoms: _682  and  _683
REMARK  282  A    between atoms: _686  and  _688
REMARK  283  A    between atoms: _688  and  _689
REMARK  284  A    between atoms: _688  and  _691
REMARK                            x       y       z     vdW  Elec       q    Type
REMARK                         _______ _______ _______ _____ _____    ______ ____
ROOT
ATOM      1  CA  LEU A   1      27.090   8.865  -5.331  0.00  0.00    +0.133 C 
ENDROOT
BRANCH   1   2
ATOM      2  N   LEU A   1      27.215  10.306  -5.494  0.00  0.00    -0.239 NA
ATOM      3  H   LEU A   1      26.483  10.931  -5.100  0.00  0.00    +0.142 HD
ENDBRANCH   1   2
BRANCH   1   4
ATOM      4  C   LEU A   1      25.608   8.517  -5.254  0.00  0.00    +0.224 C 
ATOM      5  O   LEU A   1      25.082   8.190  -4.191  0.00  0.00    -0.287 OA
ENDBRANCH   1   4
BRANCH   1   6
ATOM      6  CB  LEU A   1      27.805   8.384  -4.058  0.00  0.00    +0.025 C 
BRANCH   6   7
ATOM      7  CG  LEU A   1      27.892   6.852  -3.931  0.00  0.00    +0.002 C 
ATOM      8  CD2 LEU A   1      28.454   6.466  -2.572  0.00  0.00    +0.000 C 
ATOM      9  CD1 LEU A   1      28.769   6.286  -5.062  0.00  0.00    +0.000 C 
ENDBRANCH   6   7
ENDBRANCH   1   6
TORSDOF 4
REMARK  Name = ../refined-set-2016/3b68/3b68_pocket.pdb
REMARK  284 active torsions:
REMARK  status: ('A' for Active; 'I' for Inactive)
REMARK    1  A    between atoms: _1  and  _3
REMARK    2  A    between atoms: _3  and  _4
REMARK    3  A    between atoms: _3  and  _6
REMARK    4  A    between atoms: _9  and  _11
REMARK    5  A    between atoms: _11  and  _12
REMARK    6  A    between atoms: _15  and  _17
REMARK    7  A    between atoms: _17  and  _18
REMARK    8  A    between atoms: _17  and  _20
REMARK    9  A    between atoms: _20  and  _21
REMARK   10  A    between atoms: _24  and  _26
REMARK   11  A    between atoms: _26  and  _27
REMARK   12  A    between atoms: _26  and  _29
REMARK   13  A    between atoms: _29  and  _30
REMARK   14  A    between atoms: _33  and  _35
REMARK   15  A    between atoms: _35  and  _36
REMARK   16  A    between atoms: _35  and  _38
REMARK   17  A    between atoms: _38  and  _39
REMARK   18  A    between atoms: _41  and  _43
REMARK   19  A    between atoms: _43  and  _44
REMARK   20  A    between atoms: _43  and  _46
REMARK   21  A    between atoms: _46  and  _47
REMARK   22  A    between atoms: _49  and  _51
REMARK   23  A    between atoms: _51  and  _52
REMARK   24  A    between atoms: _51  and  _54
REMARK   25  A    between atoms: _54  and  _55
REMARK   26  A    between atoms: _58  and  _60
REMARK   27  A    between atoms: _60  and  _61
REMARK   28  A    between atoms: _60  and  _63
REMARK   29  A    between atoms: _63  and  _64
REMARK   30  A    between atoms: _69  and  _71
REMARK   31  A    between atoms: _71  and  _72
REMARK   32  A    between atoms: _71  and  _74
REMARK   33  A    between atoms: _74  and  _75
REMARK   34  A    between atoms: _75  and  _76
REMARK   35  A    between atoms: _79  and  _81
REMARK   36  A    between atoms: _81  and  _82
REMARK   37  A    between atoms: _81  and  _84
REMARK   38  A    between atoms: _84  and  _85
REMARK   39  A    between atoms: _88  and  _90
REMARK   40  A    between atoms: _90  and  _91
REMARK   41  A    between atoms: _93  and  _95
REMARK   42  A    between atoms: _95  and  _96
REMARK   43  A    between atoms: _95  and  _98
REMARK   44  A    between atoms: _98  and  _99
REMARK   45  A    between atoms: _99  and  _100
REMARK   46  A    between atoms: _103  and  _105
REMARK   47  A    between atoms: _105  and  _106
REMARK   48  A    between atoms: _105  and  _108
REMARK   49  A    between atoms: _108  and  _109
REMARK   50  A    between atoms: _109  and  _110
REMARK   51  A    between atoms: _110  and  _111
REMARK   52  A    between atoms: _120  and  _122
REMARK   53  A    between atoms: _122  and  _123
REMARK   54  A    between atoms: _122  and  _125
REMARK   55  A    between atoms: _125  and  _126
REMARK   56  A    between atoms: _126  and  _127
REMARK   57  A    between atoms: _132  and  _134
REMARK   58  A    between atoms: _134  and  _135
REMARK   59  A    between atoms: _134  and  _137
REMARK   60  A    between atoms: _137  and  _138
REMARK   61  A    between atoms: _141  and  _143
REMARK   62  A    between atoms: _143  and  _144
REMARK   63  A    between atoms: _147  and  _149
REMARK   64  A    between atoms: _149  and  _150
REMARK   65  A    between atoms: _149  and  _152
REMARK   66  A    between atoms: _152  and  _153
REMARK   67  A    between atoms: _156  and  _158
REMARK   68  A    between atoms: _158  and  _159
REMARK   69  A    between atoms: _158  and  _161
REMARK   70  A    between atoms: _161  and  _162
REMARK   71  A    between atoms: _162  and  _163
REMARK   72  A    between atoms: _168  and  _170
REMARK   73  A    between atoms: _170  and  _171
REMARK   74  A    between atoms: _170  and  _173
REMARK   75  A    between atoms: _173  and  _174
REMARK   76  A    between atoms: _179  and  _180
REMARK   77  A    between atoms: _182  and  _184
REMARK   78  A    between atoms: _184  and  _185
REMARK   79  A    between atoms: _184  and  _187
REMARK   80  A    between atoms: _187  and  _188
REMARK   81  A    between atoms: _190  and  _192
REMARK   82  A    between atoms: _192  and  _193
REMARK   83  A    between atoms: _192  and  _195
REMARK   84  A    between atoms: _195  and  _196
REMARK   85  A    between atoms: _206  and  _208
REMARK   86  A    between atoms: _208  and  _209
REMARK   87  A    between atoms: _208  and  _211
REMARK   88  A    between atoms: _211  and  _212
REMARK   89  A    between atoms: _212  and  _213
REMARK   90  A    between atoms: _215  and  _217
REMARK   91  A    between atoms: _217  and  _218
REMARK   92  A    between atoms: _220  and  _222
REMARK   93  A    between atoms: _222  and  _223
REMARK   94  A    between atoms: _222  and  _225
REMARK   95  A    between atoms: _225  and  _226
REMARK   96  A    between atoms: _229  and  _231
REMARK   97  A    between atoms: _231  and  _232
REMARK   98  A    between atoms: _231  and  _234
REMARK   99  A    between atoms: _234  and  _235
REMARK  100  A    between atoms: _235  and  _236
REMARK  101  A    between atoms: _238  and  _240
REMARK  102  A    between atoms: _240  and  _241
REMARK  103  A    between atoms: _240  and  _243
REMARK  104  A    between atoms: _246  and  _248
REMARK  105  A    between atoms: _248  and  _249
REMARK  106  A    between atoms: _248  and  _251
REMARK  107  A    between atoms: _251  and  _252
REMARK  108  A    between atoms: _258  and  _260
REMARK  109  A    between atoms: _260  and  _261
REMARK  110  A    between atoms: _264  and  _266
REMARK  111  A    between atoms: _266  and  _267
REMARK  112  A    between atoms: _266  and  _269
REMARK  113  A    between atoms: _269  and  _270
REMARK  114  A    between atoms: _270  and  _271
REMARK  115  A    between atoms: _273  and  _275
REMARK  116  A    between atoms: _275  and  _276
REMARK  117  A    between atoms: _278  and  _280
REMARK  118  A    between atoms: _280  and  _281
REMARK  119  A    between atoms: _280  and  _283
REMARK  120  A    between atoms: _283  and  _284
REMARK  121  A    between atoms: _294  and  _296
REMARK  122  A    between atoms: _296  and  _297
REMARK  123  A    between atoms: _296  and  _299
REMARK  124  A    between atoms: _299  and  _300
REMARK  125  A    between atoms: _300  and  _301
REMARK  126  A    between atoms: _301  and  _302
REMARK  127  A    between atoms: _311  and  _313
REMARK  128  A    between atoms: _313  and  _314
REMARK  129  A    between atoms: _313  and  _316
REMARK  130  A    between atoms: _316  and  _317
REMARK  131  A    between atoms: _319  and  _321
REMARK  132  A    between atoms: _321  and  _322
REMARK  133  A    between atoms: _321  and  _324
REMARK  134  A    between atoms: _324  and  _325
REMARK  135  A    between atoms: _328  and  _330
REMARK  136  A    between atoms: _330  and  _331
REMARK  137  A    between atoms: _330  and  _333
REMARK  138  A    between atoms: _333  and  _334
REMARK  139  A    between atoms: _339  and  _340
REMARK  140  A    between atoms: _342  and  _344
REMARK  141  A    between atoms: _344  and  _345
REMARK  142  A    between atoms: _344  and  _347
REMARK  143  A    between atoms: _347  and  _348
REMARK  144  A    between atoms: _354  and  _356
REMARK  145  A    between atoms: _356  and  _357
REMARK  146  A    between atoms: _361  and  _362
REMARK  147  A    between atoms: _367  and  _369
REMARK  148  A    between atoms: _369  and  _370
REMARK  149  A    between atoms: _369  and  _372
REMARK  150  A    between atoms: _372  and  _373
REMARK  151  A    between atoms: _376  and  _378
REMARK  152  A    between atoms: _378  and  _379
REMARK  153  A    between atoms: _378  and  _381
REMARK  154  A    between atoms: _381  and  _382
REMARK  155  A    between atoms: _384  and  _386
REMARK  156  A    between atoms: _386  and  _387
REMARK  157  A    between atoms: _386  and  _389
REMARK  158  A    between atoms: _389  and  _390
REMARK  159  A    between atoms: _390  and  _391
REMARK  160  A    between atoms: _393  and  _395
REMARK  161  A    between atoms: _395  and  _396
REMARK  162  A    between atoms: _395  and  _398
REMARK  163  A    between atoms: _398  and  _399
REMARK  164  A    between atoms: _399  and  _400
REMARK  165  A    between atoms: _405  and  _407
REMARK  166  A    between atoms: _407  and  _408
REMARK  167  A    between atoms: _407  and  _410
REMARK  168  A    between atoms: _412  and  _414
REMARK  169  A    between atoms: _414  and  _415
REMARK  170  A    between atoms: _414  and  _417
REMARK  171  A    between atoms: _417  and  _418
REMARK  172  A    between atoms: _418  and  _419
REMARK  173  A    between atoms: _421  and  _423
REMARK  174  A    between atoms: _423  and  _424
REMARK  175  A    between atoms: _423  and  _426
REMARK  176  A    between atoms: _426  and  _427
REMARK  177  A    between atoms: _430  and  _432
REMARK  178  A    between atoms: _432  and  _433
REMARK  179  A    between atoms: _432  and  _435
REMARK  180  A    between atoms: _435  and  _436
REMARK  181  A    between atoms: _439  and  _441
REMARK  182  A    between atoms: _441  and  _442
REMARK  183  A    between atoms: _441  and  _444
REMARK  184  A    between atoms: _447  and  _449
REMARK  185  A    between atoms: _449  and  _450
REMARK  186  A    between atoms: _449  and  _452
REMARK  187  A    between atoms: _452  and  _453
REMARK  188  A    between atoms: _456  and  _458
REMARK  189  A    between atoms: _458  and  _459
REMARK  190  A    between atoms: _462  and  _464
REMARK  191  A    between atoms: _464  and  _465
REMARK  192  A    between atoms: _464  and  _467
REMARK  193  A    between atoms: _467  and  _468
REMARK  194  A    between atoms: _471  and  _473
REMARK  195  A    between atoms: _473  and  _474
REMARK  196  A    between atoms: _473  and  _476
REMARK  197  A    between atoms: _476  and  _477
REMARK  198  A    between atoms: _482  and  _484
REMARK  199  A    between atoms: _484  and  _485
REMARK  200  A    between atoms: _484  and  _487
REMARK  201  A    between atoms: _487  and  _488
REMARK  202  A    between atoms: _494  and  _496
REMARK  203  A    between atoms: _496  and  _497
REMARK  204  A    between atoms: _496  and  _499
REMARK  205  A    between atoms: _499  and  _500
REMARK  206  A    between atoms: _503  and  _505
REMARK  207  A    between atoms: _505  and  _506
REMARK  208  A    between atoms: _505  and  _508
REMARK  209  A    between atoms: _508  and  _509
REMARK  210  A    between atoms: _515  and  _517
REMARK  211  A    between atoms: _517  and  _518
REMARK  212  A    between atoms: _517  and  _520
REMARK  213  A    between atoms: _520  and  _521
REMARK  214  A    between atoms: _524  and  _526
REMARK  215  A    between atoms: _526  and  _527
REMARK  216  A    between atoms: _526  and  _529
REMARK  217  A    between atoms: _529  and  _530
REMARK  218  A    between atoms: _533  and  _535
REMARK  219  A    between atoms: _535  and  _536
REMARK  220  A    between atoms: _535  and  _538
REMARK  221  A    between atoms: _541  and  _543
REMARK  222  A    between atoms: _543  and  _544
REMARK  223  A    between atoms: _543  and  _546
REMARK  224  A    between atoms: _546  and  _547
REMARK  225  A    between atoms: _550  and  _552
REMARK  226  A    between atoms: _552  and  _553
REMARK  227  A    between atoms: _552  and  _555
REMARK  228  A    between atoms: _555  and  _556
REMARK  229  A    between atoms: _563  and  _564
REMARK  230  A    between atoms: _569  and  _571
REMARK  231  A    between atoms: _571  and  _572
REMARK  232  A    between atoms: _571  and  _574
REMARK  233  A    between atoms: _574  and  _575
REMARK  234  A    between atoms: _575  and  _576
REMARK  235  A    between atoms: _578  and  _580
REMARK  236  A    between atoms: _580  and  _581
REMARK  237  A    between atoms: _580  and  _583
REMARK  238  A    between atoms: _583  and  _584
REMARK  239  A    between atoms: _584  and  _585
REMARK  240  A    between atoms: _587  and  _589
REMARK  241  A    between atoms: _589  and  _590
REMARK  242  A    between atoms: _593  and  _595
REMARK  243  A    between atoms: _595  and  _596
REMARK  244  A    between atoms: _595  and  _598
REMARK  245  A    between atoms: _598  and  _599
REMARK  246  A    between atoms: _599  and  _600
REMARK  247  A    between atoms: _603  and  _605
REMARK  248  A    between atoms: _605  and  _606
REMARK  249  A    between atoms: _605  and  _608
REMARK  250  A    between atoms: _608  and  _609
REMARK  251  A    between atoms: _612  and  _614
REMARK  252  A    between atoms: _614  and  _615
REMARK  253  A    between atoms: _614  and  _617
REMARK  254  A    between atoms: _617  and  _618
REMARK  255  A    between atoms: _621  and  _623
REMARK  256  A    between atoms: _623  and  _624
REMARK  257  A    between atoms: _623  and  _626
REMARK  258  A    between atoms: _626  and  _627
REMARK  259  A    between atoms: _629  and  _631
REMARK  260  A    between atoms: _631  and  _632
REMARK  261  A    between atoms: _631  and  _634
REMARK  262  A    between atoms: _637  and  _639
REMARK  263  A    between atoms: _639  and  _640
REMARK  264  A    between atoms: _639  and  _642
REMARK  265  A    between atoms: _642  and  _643
REMARK  266  A    between atoms: _643  and  _644
REMARK  267  A    between atoms: _649  and  _651
REMARK  268  A    between atoms: _651  and  _652
REMARK  269  A    between atoms: _651  and  _654
REMARK  270  A    between atoms: _658  and  _659
REMARK  271  A    between atoms: _664  and  _666
REMARK  272  A    between atoms: _666  and  _667
REMARK  273  A    between atoms: _666  and  _669
REMARK  274  A    between atoms: _669  and  _670
REMARK  275  A    between atoms: _670  and  _671
REMARK  276  A    between atoms: _671  and  _672
REMARK  277  A    between atoms: _672  and  _673
REMARK  278  A    between atoms: _677  and  _679
REMARK  279  A    between atoms: _679  and  _680
REMARK  280  A    between atoms: _679  and  _682
REMARK  281  A    between atoms: _682  and  _683
REMARK  282  A    between atoms: _686  and  _688
REMARK  283  A    between atoms: _688  and  _689
REMARK  284  A    between atoms: _688  and  _691
REMARK                            x       y       z     vdW  Elec       q    Type
REMARK                         _______ _______ _______ _____ _____    ______ ____
ROOT
ATOM      1  CA  SER A   1      27.252  -3.106  -5.077  0.00  0.00    +0.163 C 
ENDROOT
BRANCH   1   2
ATOM      2  N   SER A   1      26.719  -3.267  -6.424  0.00  0.00    -0.237 NA
ATOM      3  H   SER A   1      25.849  -2.761  -6.685  0.00  0.00    +0.142 HD
ENDBRANCH   1   2
BRANCH   1   4
ATOM      4  C   SER A   1      27.047  -4.378  -4.261  0.00  0.00    +0.227 C 
ATOM      5  O   SER A   1      27.660  -4.552  -3.210  0.00  0.00    -0.287 OA
ENDBRANCH   1   4
BRANCH   1   6
ATOM      6  CB  SER A   1      26.557  -1.938  -4.365  0.00  0.00    +0.162 C 
BRANCH   6   7
ATOM      7  OG  SER A   1      25.225  -2.277  -4.006  0.00  0.00    -0.380 OA
ATOM      8  H   SER A   1      24.711  -2.502  -4.822  0.00  0.00    +0.211 HD
ENDBRANCH   6   7
ENDBRANCH   1   6
TORSDOF 4
REMARK  Name = ../refined-set-2016/3b68/3b68_pocket.pdb
REMARK  284 active torsions:
REMARK  status: ('A' for Active; 'I' for Inactive)
REMARK    1  A    between atoms: _1  and  _3
REMARK    2  A    between atoms: _3  and  _4
REMARK    3  A    between atoms: _3  and  _6
REMARK    4  A    between atoms: _9  and  _11
REMARK    5  A    between atoms: _11  and  _12
REMARK    6  A    between atoms: _15  and  _17
REMARK    7  A    between atoms: _17  and  _18
REMARK    8  A    between atoms: _17  and  _20
REMARK    9  A    between atoms: _20  and  _21
REMARK   10  A    between atoms: _24  and  _26
REMARK   11  A    between atoms: _26  and  _27
REMARK   12  A    between atoms: _26  and  _29
REMARK   13  A    between atoms: _29  and  _30
REMARK   14  A    between atoms: _33  and  _35
REMARK   15  A    between atoms: _35  and  _36
REMARK   16  A    between atoms: _35  and  _38
REMARK   17  A    between atoms: _38  and  _39
REMARK   18  A    between atoms: _41  and  _43
REMARK   19  A    between atoms: _43  and  _44
REMARK   20  A    between atoms: _43  and  _46
REMARK   21  A    between atoms: _46  and  _47
REMARK   22  A    between atoms: _49  and  _51
REMARK   23  A    between atoms: _51  and  _52
REMARK   24  A    between atoms: _51  and  _54
REMARK   25  A    between atoms: _54  and  _55
REMARK   26  A    between atoms: _58  and  _60
REMARK   27  A    between atoms: _60  and  _61
REMARK   28  A    between atoms: _60  and  _63
REMARK   29  A    between atoms: _63  and  _64
REMARK   30  A    between atoms: _69  and  _71
REMARK   31  A    between atoms: _71  and  _72
REMARK   32  A    between atoms: _71  and  _74
REMARK   33  A    between atoms: _74  and  _75
REMARK   34  A    between atoms: _75  and  _76
REMARK   35  A    between atoms: _79  and  _81
REMARK   36  A    between atoms: _81  and  _82
REMARK   37  A    between atoms: _81  and  _84
REMARK   38  A    between atoms: _84  and  _85
REMARK   39  A    between atoms: _88  and  _90
REMARK   40  A    between atoms: _90  and  _91
REMARK   41  A    between atoms: _93  and  _95
REMARK   42  A    between atoms: _95  and  _96
REMARK   43  A    between atoms: _95  and  _98
REMARK   44  A    between atoms: _98  and  _99
REMARK   45  A    between atoms: _99  and  _100
REMARK   46  A    between atoms: _103  and  _105
REMARK   47  A    between atoms: _105  and  _106
REMARK   48  A    between atoms: _105  and  _108
REMARK   49  A    between atoms: _108  and  _109
REMARK   50  A    between atoms: _109  and  _110
REMARK   51  A    between atoms: _110  and  _111
REMARK   52  A    between atoms: _120  and  _122
REMARK   53  A    between atoms: _122  and  _123
REMARK   54  A    between atoms: _122  and  _125
REMARK   55  A    between atoms: _125  and  _126
REMARK   56  A    between atoms: _126  and  _127
REMARK   57  A    between atoms: _132  and  _134
REMARK   58  A    between atoms: _134  and  _135
REMARK   59  A    between atoms: _134  and  _137
REMARK   60  A    between atoms: _137  and  _138
REMARK   61  A    between atoms: _141  and  _143
REMARK   62  A    between atoms: _143  and  _144
REMARK   63  A    between atoms: _147  and  _149
REMARK   64  A    between atoms: _149  and  _150
REMARK   65  A    between atoms: _149  and  _152
REMARK   66  A    between atoms: _152  and  _153
REMARK   67  A    between atoms: _156  and  _158
REMARK   68  A    between atoms: _158  and  _159
REMARK   69  A    between atoms: _158  and  _161
REMARK   70  A    between atoms: _161  and  _162
REMARK   71  A    between atoms: _162  and  _163
REMARK   72  A    between atoms: _168  and  _170
REMARK   73  A    between atoms: _170  and  _171
REMARK   74  A    between atoms: _170  and  _173
REMARK   75  A    between atoms: _173  and  _174
REMARK   76  A    between atoms: _179  and  _180
REMARK   77  A    between atoms: _182  and  _184
REMARK   78  A    between atoms: _184  and  _185
REMARK   79  A    between atoms: _184  and  _187
REMARK   80  A    between atoms: _187  and  _188
REMARK   81  A    between atoms: _190  and  _192
REMARK   82  A    between atoms: _192  and  _193
REMARK   83  A    between atoms: _192  and  _195
REMARK   84  A    between atoms: _195  and  _196
REMARK   85  A    between atoms: _206  and  _208
REMARK   86  A    between atoms: _208  and  _209
REMARK   87  A    between atoms: _208  and  _211
REMARK   88  A    between atoms: _211  and  _212
REMARK   89  A    between atoms: _212  and  _213
REMARK   90  A    between atoms: _215  and  _217
REMARK   91  A    between atoms: _217  and  _218
REMARK   92  A    between atoms: _220  and  _222
REMARK   93  A    between atoms: _222  and  _223
REMARK   94  A    between atoms: _222  and  _225
REMARK   95  A    between atoms: _225  and  _226
REMARK   96  A    between atoms: _229  and  _231
REMARK   97  A    between atoms: _231  and  _232
REMARK   98  A    between atoms: _231  and  _234
REMARK   99  A    between atoms: _234  and  _235
REMARK  100  A    between atoms: _235  and  _236
REMARK  101  A    between atoms: _238  and  _240
REMARK  102  A    between atoms: _240  and  _241
REMARK  103  A    between atoms: _240  and  _243
REMARK  104  A    between atoms: _246  and  _248
REMARK  105  A    between atoms: _248  and  _249
REMARK  106  A    between atoms: _248  and  _251
REMARK  107  A    between atoms: _251  and  _252
REMARK  108  A    between atoms: _258  and  _260
REMARK  109  A    between atoms: _260  and  _261
REMARK  110  A    between atoms: _264  and  _266
REMARK  111  A    between atoms: _266  and  _267
REMARK  112  A    between atoms: _266  and  _269
REMARK  113  A    between atoms: _269  and  _270
REMARK  114  A    between atoms: _270  and  _271
REMARK  115  A    between atoms: _273  and  _275
REMARK  116  A    between atoms: _275  and  _276
REMARK  117  A    between atoms: _278  and  _280
REMARK  118  A    between atoms: _280  and  _281
REMARK  119  A    between atoms: _280  and  _283
REMARK  120  A    between atoms: _283  and  _284
REMARK  121  A    between atoms: _294  and  _296
REMARK  122  A    between atoms: _296  and  _297
REMARK  123  A    between atoms: _296  and  _299
REMARK  124  A    between atoms: _299  and  _300
REMARK  125  A    between atoms: _300  and  _301
REMARK  126  A    between atoms: _301  and  _302
REMARK  127  A    between atoms: _311  and  _313
REMARK  128  A    between atoms: _313  and  _314
REMARK  129  A    between atoms: _313  and  _316
REMARK  130  A    between atoms: _316  and  _317
REMARK  131  A    between atoms: _319  and  _321
REMARK  132  A    between atoms: _321  and  _322
REMARK  133  A    between atoms: _321  and  _324
REMARK  134  A    between atoms: _324  and  _325
REMARK  135  A    between atoms: _328  and  _330
REMARK  136  A    between atoms: _330  and  _331
REMARK  137  A    between atoms: _330  and  _333
REMARK  138  A    between atoms: _333  and  _334
REMARK  139  A    between atoms: _339  and  _340
REMARK  140  A    between atoms: _342  and  _344
REMARK  141  A    between atoms: _344  and  _345
REMARK  142  A    between atoms: _344  and  _347
REMARK  143  A    between atoms: _347  and  _348
REMARK  144  A    between atoms: _354  and  _356
REMARK  145  A    between atoms: _356  and  _357
REMARK  146  A    between atoms: _361  and  _362
REMARK  147  A    between atoms: _367  and  _369
REMARK  148  A    between atoms: _369  and  _370
REMARK  149  A    between atoms: _369  and  _372
REMARK  150  A    between atoms: _372  and  _373
REMARK  151  A    between atoms: _376  and  _378
REMARK  152  A    between atoms: _378  and  _379
REMARK  153  A    between atoms: _378  and  _381
REMARK  154  A    between atoms: _381  and  _382
REMARK  155  A    between atoms: _384  and  _386
REMARK  156  A    between atoms: _386  and  _387
REMARK  157  A    between atoms: _386  and  _389
REMARK  158  A    between atoms: _389  and  _390
REMARK  159  A    between atoms: _390  and  _391
REMARK  160  A    between atoms: _393  and  _395
REMARK  161  A    between atoms: _395  and  _396
REMARK  162  A    between atoms: _395  and  _398
REMARK  163  A    between atoms: _398  and  _399
REMARK  164  A    between atoms: _399  and  _400
REMARK  165  A    between atoms: _405  and  _407
REMARK  166  A    between atoms: _407  and  _408
REMARK  167  A    between atoms: _407  and  _410
REMARK  168  A    between atoms: _412  and  _414
REMARK  169  A    between atoms: _414  and  _415
REMARK  170  A    between atoms: _414  and  _417
REMARK  171  A    between atoms: _417  and  _418
REMARK  172  A    between atoms: _418  and  _419
REMARK  173  A    between atoms: _421  and  _423
REMARK  174  A    between atoms: _423  and  _424
REMARK  175  A    between atoms: _423  and  _426
REMARK  176  A    between atoms: _426  and  _427
REMARK  177  A    between atoms: _430  and  _432
REMARK  178  A    between atoms: _432  and  _433
REMARK  179  A    between atoms: _432  and  _435
REMARK  180  A    between atoms: _435  and  _436
REMARK  181  A    between atoms: _439  and  _441
REMARK  182  A    between atoms: _441  and  _442
REMARK  183  A    between atoms: _441  and  _444
REMARK  184  A    between atoms: _447  and  _449
REMARK  185  A    between atoms: _449  and  _450
REMARK  186  A    between atoms: _449  and  _452
REMARK  187  A    between atoms: _452  and  _453
REMARK  188  A    between atoms: _456  and  _458
REMARK  189  A    between atoms: _458  and  _459
REMARK  190  A    between atoms: _462  and  _464
REMARK  191  A    between atoms: _464  and  _465
REMARK  192  A    between atoms: _464  and  _467
REMARK  193  A    between atoms: _467  and  _468
REMARK  194  A    between atoms: _471  and  _473
REMARK  195  A    between atoms: _473  and  _474
REMARK  196  A    between atoms: _473  and  _476
REMARK  197  A    between atoms: _476  and  _477
REMARK  198  A    between atoms: _482  and  _484
REMARK  199  A    between atoms: _484  and  _485
REMARK  200  A    between atoms: _484  and  _487
REMARK  201  A    between atoms: _487  and  _488
REMARK  202  A    between atoms: _494  and  _496
REMARK  203  A    between atoms: _496  and  _497
REMARK  204  A    between atoms: _496  and  _499
REMARK  205  A    between atoms: _499  and  _500
REMARK  206  A    between atoms: _503  and  _505
REMARK  207  A    between atoms: _505  and  _506
REMARK  208  A    between atoms: _505  and  _508
REMARK  209  A    between atoms: _508  and  _509
REMARK  210  A    between atoms: _515  and  _517
REMARK  211  A    between atoms: _517  and  _518
REMARK  212  A    between atoms: _517  and  _520
REMARK  213  A    between atoms: _520  and  _521
REMARK  214  A    between atoms: _524  and  _526
REMARK  215  A    between atoms: _526  and  _527
REMARK  216  A    between atoms: _526  and  _529
REMARK  217  A    between atoms: _529  and  _530
REMARK  218  A    between atoms: _533  and  _535
REMARK  219  A    between atoms: _535  and  _536
REMARK  220  A    between atoms: _535  and  _538
REMARK  221  A    between atoms: _541  and  _543
REMARK  222  A    between atoms: _543  and  _544
REMARK  223  A    between atoms: _543  and  _546
REMARK  224  A    between atoms: _546  and  _547
REMARK  225  A    between atoms: _550  and  _552
REMARK  226  A    between atoms: _552  and  _553
REMARK  227  A    between atoms: _552  and  _555
REMARK  228  A    between atoms: _555  and  _556
REMARK  229  A    between atoms: _563  and  _564
REMARK  230  A    between atoms: _569  and  _571
REMARK  231  A    between atoms: _571  and  _572
REMARK  232  A    between atoms: _571  and  _574
REMARK  233  A    between atoms: _574  and  _575
REMARK  234  A    between atoms: _575  and  _576
REMARK  235  A    between atoms: _578  and  _580
REMARK  236  A    between atoms: _580  and  _581
REMARK  237  A    between atoms: _580  and  _583
REMARK  238  A    between atoms: _583  and  _584
REMARK  239  A    between atoms: _584  and  _585
REMARK  240  A    between atoms: _587  and  _589
REMARK  241  A    between atoms: _589  and  _590
REMARK  242  A    between atoms: _593  and  _595
REMARK  243  A    between atoms: _595  and  _596
REMARK  244  A    between atoms: _595  and  _598
REMARK  245  A    between atoms: _598  and  _599
REMARK  246  A    between atoms: _599  and  _600
REMARK  247  A    between atoms: _603  and  _605
REMARK  248  A    between atoms: _605  and  _606
REMARK  249  A    between atoms: _605  and  _608
REMARK  250  A    between atoms: _608  and  _609
REMARK  251  A    between atoms: _612  and  _614
REMARK  252  A    between atoms: _614  and  _615
REMARK  253  A    between atoms: _614  and  _617
REMARK  254  A    between atoms: _617  and  _618
REMARK  255  A    between atoms: _621  and  _623
REMARK  256  A    between atoms: _623  and  _624
REMARK  257  A    between atoms: _623  and  _626
REMARK  258  A    between atoms: _626  and  _627
REMARK  259  A    between atoms: _629  and  _631
REMARK  260  A    between atoms: _631  and  _632
REMARK  261  A    between atoms: _631  and  _634
REMARK  262  A    between atoms: _637  and  _639
REMARK  263  A    between atoms: _639  and  _640
REMARK  264  A    between atoms: _639  and  _642
REMARK  265  A    between atoms: _642  and  _643
REMARK  266  A    between atoms: _643  and  _644
REMARK  267  A    between atoms: _649  and  _651
REMARK  268  A    between atoms: _651  and  _652
REMARK  269  A    between atoms: _651  and  _654
REMARK  270  A    between atoms: _658  and  _659
REMARK  271  A    between atoms: _664  and  _666
REMARK  272  A    between atoms: _666  and  _667
REMARK  273  A    between atoms: _666  and  _669
REMARK  274  A    between atoms: _669  and  _670
REMARK  275  A    between atoms: _670  and  _671
REMARK  276  A    between atoms: _671  and  _672
REMARK  277  A    between atoms: _672  and  _673
REMARK  278  A    between atoms: _677  and  _679
REMARK  279  A    between atoms: _679  and  _680
REMARK  280  A    between atoms: _679  and  _682
REMARK  281  A    between atoms: _682  and  _683
REMARK  282  A    between atoms: _686  and  _688
REMARK  283  A    between atoms: _688  and  _689
REMARK  284  A    between atoms: _688  and  _691
REMARK                            x       y       z     vdW  Elec       q    Type
REMARK                         _______ _______ _______ _____ _____    ______ ____
ROOT
ATOM      1  CA  MET A   1      23.718  -4.729  -1.478  0.00  0.00    +0.134 C 
ENDROOT
BRANCH   1   2
ATOM      2  N   MET A   1      24.507  -5.104  -2.648  0.00  0.00    -0.239 NA
ATOM      3  H   MET A   1      24.620  -4.409  -3.414  0.00  0.00    +0.142 HD
ENDBRANCH   1   2
BRANCH   1   4
ATOM      4  C   MET A   1      22.325  -4.452  -2.005  0.00  0.00    +0.224 C 
ATOM      5  O   MET A   1      21.627  -3.580  -1.485  0.00  0.00    -0.287 OA
ENDBRANCH   1   4
BRANCH   1   6
ATOM      6  CB  MET A   1      24.230  -3.427  -0.861  0.00  0.00    +0.037 C 
BRANCH   6   7
ATOM      7  CG  MET A   1      25.610  -3.461  -0.251  0.00  0.00    +0.059 C 
BRANCH   7   8
ATOM      8  SD  MET A   1      26.225  -1.774  -0.015  0.00  0.00    -0.139 S 
ATOM      9  CE  MET A   1      25.047  -1.124   1.092  0.00  0.00    +0.069 C 
ENDBRANCH   7   8
ENDBRANCH   6   7
ENDBRANCH   1   6
TORSDOF 5
REMARK  Name = ../refined-set-2016/3b68/3b68_pocket.pdb
REMARK  284 active torsions:
REMARK  status: ('A' for Active; 'I' for Inactive)
REMARK    1  A    between atoms: _1  and  _3
REMARK    2  A    between atoms: _3  and  _4
REMARK    3  A    between atoms: _3  and  _6
REMARK    4  A    between atoms: _9  and  _11
REMARK    5  A    between atoms: _11  and  _12
REMARK    6  A    between atoms: _15  and  _17
REMARK    7  A    between atoms: _17  and  _18
REMARK    8  A    between atoms: _17  and  _20
REMARK    9  A    between atoms: _20  and  _21
REMARK   10  A    between atoms: _24  and  _26
REMARK   11  A    between atoms: _26  and  _27
REMARK   12  A    between atoms: _26  and  _29
REMARK   13  A    between atoms: _29  and  _30
REMARK   14  A    between atoms: _33  and  _35
REMARK   15  A    between atoms: _35  and  _36
REMARK   16  A    between atoms: _35  and  _38
REMARK   17  A    between atoms: _38  and  _39
REMARK   18  A    between atoms: _41  and  _43
REMARK   19  A    between atoms: _43  and  _44
REMARK   20  A    between atoms: _43  and  _46
REMARK   21  A    between atoms: _46  and  _47
REMARK   22  A    between atoms: _49  and  _51
REMARK   23  A    between atoms: _51  and  _52
REMARK   24  A    between atoms: _51  and  _54
REMARK   25  A    between atoms: _54  and  _55
REMARK   26  A    between atoms: _58  and  _60
REMARK   27  A    between atoms: _60  and  _61
REMARK   28  A    between atoms: _60  and  _63
REMARK   29  A    between atoms: _63  and  _64
REMARK   30  A    between atoms: _69  and  _71
REMARK   31  A    between atoms: _71  and  _72
REMARK   32  A    between atoms: _71  and  _74
REMARK   33  A    between atoms: _74  and  _75
REMARK   34  A    between atoms: _75  and  _76
REMARK   35  A    between atoms: _79  and  _81
REMARK   36  A    between atoms: _81  and  _82
REMARK   37  A    between atoms: _81  and  _84
REMARK   38  A    between atoms: _84  and  _85
REMARK   39  A    between atoms: _88  and  _90
REMARK   40  A    between atoms: _90  and  _91
REMARK   41  A    between atoms: _93  and  _95
REMARK   42  A    between atoms: _95  and  _96
REMARK   43  A    between atoms: _95  and  _98
REMARK   44  A    between atoms: _98  and  _99
REMARK   45  A    between atoms: _99  and  _100
REMARK   46  A    between atoms: _103  and  _105
REMARK   47  A    between atoms: _105  and  _106
REMARK   48  A    between atoms: _105  and  _108
REMARK   49  A    between atoms: _108  and  _109
REMARK   50  A    between atoms: _109  and  _110
REMARK   51  A    between atoms: _110  and  _111
REMARK   52  A    between atoms: _120  and  _122
REMARK   53  A    between atoms: _122  and  _123
REMARK   54  A    between atoms: _122  and  _125
REMARK   55  A    between atoms: _125  and  _126
REMARK   56  A    between atoms: _126  and  _127
REMARK   57  A    between atoms: _132  and  _134
REMARK   58  A    between atoms: _134  and  _135
REMARK   59  A    between atoms: _134  and  _137
REMARK   60  A    between atoms: _137  and  _138
REMARK   61  A    between atoms: _141  and  _143
REMARK   62  A    between atoms: _143  and  _144
REMARK   63  A    between atoms: _147  and  _149
REMARK   64  A    between atoms: _149  and  _150
REMARK   65  A    between atoms: _149  and  _152
REMARK   66  A    between atoms: _152  and  _153
REMARK   67  A    between atoms: _156  and  _158
REMARK   68  A    between atoms: _158  and  _159
REMARK   69  A    between atoms: _158  and  _161
REMARK   70  A    between atoms: _161  and  _162
REMARK   71  A    between atoms: _162  and  _163
REMARK   72  A    between atoms: _168  and  _170
REMARK   73  A    between atoms: _170  and  _171
REMARK   74  A    between atoms: _170  and  _173
REMARK   75  A    between atoms: _173  and  _174
REMARK   76  A    between atoms: _179  and  _180
REMARK   77  A    between atoms: _182  and  _184
REMARK   78  A    between atoms: _184  and  _185
REMARK   79  A    between atoms: _184  and  _187
REMARK   80  A    between atoms: _187  and  _188
REMARK   81  A    between atoms: _190  and  _192
REMARK   82  A    between atoms: _192  and  _193
REMARK   83  A    between atoms: _192  and  _195
REMARK   84  A    between atoms: _195  and  _196
REMARK   85  A    between atoms: _206  and  _208
REMARK   86  A    between atoms: _208  and  _209
REMARK   87  A    between atoms: _208  and  _211
REMARK   88  A    between atoms: _211  and  _212
REMARK   89  A    between atoms: _212  and  _213
REMARK   90  A    between atoms: _215  and  _217
REMARK   91  A    between atoms: _217  and  _218
REMARK   92  A    between atoms: _220  and  _222
REMARK   93  A    between atoms: _222  and  _223
REMARK   94  A    between atoms: _222  and  _225
REMARK   95  A    between atoms: _225  and  _226
REMARK   96  A    between atoms: _229  and  _231
REMARK   97  A    between atoms: _231  and  _232
REMARK   98  A    between atoms: _231  and  _234
REMARK   99  A    between atoms: _234  and  _235
REMARK  100  A    between atoms: _235  and  _236
REMARK  101  A    between atoms: _238  and  _240
REMARK  102  A    between atoms: _240  and  _241
REMARK  103  A    between atoms: _240  and  _243
REMARK  104  A    between atoms: _246  and  _248
REMARK  105  A    between atoms: _248  and  _249
REMARK  106  A    between atoms: _248  and  _251
REMARK  107  A    between atoms: _251  and  _252
REMARK  108  A    between atoms: _258  and  _260
REMARK  109  A    between atoms: _260  and  _261
REMARK  110  A    between atoms: _264  and  _266
REMARK  111  A    between atoms: _266  and  _267
REMARK  112  A    between atoms: _266  and  _269
REMARK  113  A    between atoms: _269  and  _270
REMARK  114  A    between atoms: _270  and  _271
REMARK  115  A    between atoms: _273  and  _275
REMARK  116  A    between atoms: _275  and  _276
REMARK  117  A    between atoms: _278  and  _280
REMARK  118  A    between atoms: _280  and  _281
REMARK  119  A    between atoms: _280  and  _283
REMARK  120  A    between atoms: _283  and  _284
REMARK  121  A    between atoms: _294  and  _296
REMARK  122  A    between atoms: _296  and  _297
REMARK  123  A    between atoms: _296  and  _299
REMARK  124  A    between atoms: _299  and  _300
REMARK  125  A    between atoms: _300  and  _301
REMARK  126  A    between atoms: _301  and  _302
REMARK  127  A    between atoms: _311  and  _313
REMARK  128  A    between atoms: _313  and  _314
REMARK  129  A    between atoms: _313  and  _316
REMARK  130  A    between atoms: _316  and  _317
REMARK  131  A    between atoms: _319  and  _321
REMARK  132  A    between atoms: _321  and  _322
REMARK  133  A    between atoms: _321  and  _324
REMARK  134  A    between atoms: _324  and  _325
REMARK  135  A    between atoms: _328  and  _330
REMARK  136  A    between atoms: _330  and  _331
REMARK  137  A    between atoms: _330  and  _333
REMARK  138  A    between atoms: _333  and  _334
REMARK  139  A    between atoms: _339  and  _340
REMARK  140  A    between atoms: _342  and  _344
REMARK  141  A    between atoms: _344  and  _345
REMARK  142  A    between atoms: _344  and  _347
REMARK  143  A    between atoms: _347  and  _348
REMARK  144  A    between atoms: _354  and  _356
REMARK  145  A    between atoms: _356  and  _357
REMARK  146  A    between atoms: _361  and  _362
REMARK  147  A    between atoms: _367  and  _369
REMARK  148  A    between atoms: _369  and  _370
REMARK  149  A    between atoms: _369  and  _372
REMARK  150  A    between atoms: _372  and  _373
REMARK  151  A    between atoms: _376  and  _378
REMARK  152  A    between atoms: _378  and  _379
REMARK  153  A    between atoms: _378  and  _381
REMARK  154  A    between atoms: _381  and  _382
REMARK  155  A    between atoms: _384  and  _386
REMARK  156  A    between atoms: _386  and  _387
REMARK  157  A    between atoms: _386  and  _389
REMARK  158  A    between atoms: _389  and  _390
REMARK  159  A    between atoms: _390  and  _391
REMARK  160  A    between atoms: _393  and  _395
REMARK  161  A    between atoms: _395  and  _396
REMARK  162  A    between atoms: _395  and  _398
REMARK  163  A    between atoms: _398  and  _399
REMARK  164  A    between atoms: _399  and  _400
REMARK  165  A    between atoms: _405  and  _407
REMARK  166  A    between atoms: _407  and  _408
REMARK  167  A    between atoms: _407  and  _410
REMARK  168  A    between atoms: _412  and  _414
REMARK  169  A    between atoms: _414  and  _415
REMARK  170  A    between atoms: _414  and  _417
REMARK  171  A    between atoms: _417  and  _418
REMARK  172  A    between atoms: _418  and  _419
REMARK  173  A    between atoms: _421  and  _423
REMARK  174  A    between atoms: _423  and  _424
REMARK  175  A    between atoms: _423  and  _426
REMARK  176  A    between atoms: _426  and  _427
REMARK  177  A    between atoms: _430  and  _432
REMARK  178  A    between atoms: _432  and  _433
REMARK  179  A    between atoms: _432  and  _435
REMARK  180  A    between atoms: _435  and  _436
REMARK  181  A    between atoms: _439  and  _441
REMARK  182  A    between atoms: _441  and  _442
REMARK  183  A    between atoms: _441  and  _444
REMARK  184  A    between atoms: _447  and  _449
REMARK  185  A    between atoms: _449  and  _450
REMARK  186  A    between atoms: _449  and  _452
REMARK  187  A    between atoms: _452  and  _453
REMARK  188  A    between atoms: _456  and  _458
REMARK  189  A    between atoms: _458  and  _459
REMARK  190  A    between atoms: _462  and  _464
REMARK  191  A    between atoms: _464  and  _465
REMARK  192  A    between atoms: _464  and  _467
REMARK  193  A    between atoms: _467  and  _468
REMARK  194  A    between atoms: _471  and  _473
REMARK  195  A    between atoms: _473  and  _474
REMARK  196  A    between atoms: _473  and  _476
REMARK  197  A    between atoms: _476  and  _477
REMARK  198  A    between atoms: _482  and  _484
REMARK  199  A    between atoms: _484  and  _485
REMARK  200  A    between atoms: _484  and  _487
REMARK  201  A    between atoms: _487  and  _488
REMARK  202  A    between atoms: _494  and  _496
REMARK  203  A    between atoms: _496  and  _497
REMARK  204  A    between atoms: _496  and  _499
REMARK  205  A    between atoms: _499  and  _500
REMARK  206  A    between atoms: _503  and  _505
REMARK  207  A    between atoms: _505  and  _506
REMARK  208  A    between atoms: _505  and  _508
REMARK  209  A    between atoms: _508  and  _509
REMARK  210  A    between atoms: _515  and  _517
REMARK  211  A    between atoms: _517  and  _518
REMARK  212  A    between atoms: _517  and  _520
REMARK  213  A    between atoms: _520  and  _521
REMARK  214  A    between atoms: _524  and  _526
REMARK  215  A    between atoms: _526  and  _527
REMARK  216  A    between atoms: _526  and  _529
REMARK  217  A    between atoms: _529  and  _530
REMARK  218  A    between atoms: _533  and  _535
REMARK  219  A    between atoms: _535  and  _536
REMARK  220  A    between atoms: _535  and  _538
REMARK  221  A    between atoms: _541  and  _543
REMARK  222  A    between atoms: _543  and  _544
REMARK  223  A    between atoms: _543  and  _546
REMARK  224  A    between atoms: _546  and  _547
REMARK  225  A    between atoms: _550  and  _552
REMARK  226  A    between atoms: _552  and  _553
REMARK  227  A    between atoms: _552  and  _555
REMARK  228  A    between atoms: _555  and  _556
REMARK  229  A    between atoms: _563  and  _564
REMARK  230  A    between atoms: _569  and  _571
REMARK  231  A    between atoms: _571  and  _572
REMARK  232  A    between atoms: _571  and  _574
REMARK  233  A    between atoms: _574  and  _575
REMARK  234  A    between atoms: _575  and  _576
REMARK  235  A    between atoms: _578  and  _580
REMARK  236  A    between atoms: _580  and  _581
REMARK  237  A    between atoms: _580  and  _583
REMARK  238  A    between atoms: _583  and  _584
REMARK  239  A    between atoms: _584  and  _585
REMARK  240  A    between atoms: _587  and  _589
REMARK  241  A    between atoms: _589  and  _590
REMARK  242  A    between atoms: _593  and  _595
REMARK  243  A    between atoms: _595  and  _596
REMARK  244  A    between atoms: _595  and  _598
REMARK  245  A    between atoms: _598  and  _599
REMARK  246  A    between atoms: _599  and  _600
REMARK  247  A    between atoms: _603  and  _605
REMARK  248  A    between atoms: _605  and  _606
REMARK  249  A    between atoms: _605  and  _608
REMARK  250  A    between atoms: _608  and  _609
REMARK  251  A    between atoms: _612  and  _614
REMARK  252  A    between atoms: _614  and  _615
REMARK  253  A    between atoms: _614  and  _617
REMARK  254  A    between atoms: _617  and  _618
REMARK  255  A    between atoms: _621  and  _623
REMARK  256  A    between atoms: _623  and  _624
REMARK  257  A    between atoms: _623  and  _626
REMARK  258  A    between atoms: _626  and  _627
REMARK  259  A    between atoms: _629  and  _631
REMARK  260  A    between atoms: _631  and  _632
REMARK  261  A    between atoms: _631  and  _634
REMARK  262  A    between atoms: _637  and  _639
REMARK  263  A    between atoms: _639  and  _640
REMARK  264  A    between atoms: _639  and  _642
REMARK  265  A    between atoms: _642  and  _643
REMARK  266  A    between atoms: _643  and  _644
REMARK  267  A    between atoms: _649  and  _651
REMARK  268  A    between atoms: _651  and  _652
REMARK  269  A    between atoms: _651  and  _654
REMARK  270  A    between atoms: _658  and  _659
REMARK  271  A    between atoms: _664  and  _666
REMARK  272  A    between atoms: _666  and  _667
REMARK  273  A    between atoms: _666  and  _669
REMARK  274  A    between atoms: _669  and  _670
REMARK  275  A    between atoms: _670  and  _671
REMARK  276  A    between atoms: _671  and  _672
REMARK  277  A    between atoms: _672  and  _673
REMARK  278  A    between atoms: _677  and  _679
REMARK  279  A    between atoms: _679  and  _680
REMARK  280  A    between atoms: _679  and  _682
REMARK  281  A    between atoms: _682  and  _683
REMARK  282  A    between atoms: _686  and  _688
REMARK  283  A    between atoms: _688  and  _689
REMARK  284  A    between atoms: _688  and  _691
REMARK                            x       y       z     vdW  Elec       q    Type
REMARK                         _______ _______ _______ _____ _____    ______ ____
ROOT
ATOM      1  CA  GLN A   1      19.281  -3.706   1.379  0.00  0.00    +0.145 C 
ENDROOT
BRANCH   1   2
ATOM      2  C   GLN A   1      18.890  -2.401   0.715  0.00  0.00    +0.238 C 
ATOM      3  O   GLN A   1      18.137  -1.619   1.286  0.00  0.00    -0.274 OA
ATOM      4  N   CYS A   2      19.394  -2.161  -0.491  0.00  0.00    -0.298 N 
ATOM      5  H   CYS A   2      20.033  -2.855  -0.929  0.00  0.00    +0.150 HD
BRANCH   4   6
ATOM      6  CA  CYS A   2      19.061  -0.936  -1.206  0.00  0.00    +0.149 C 
BRANCH   6   7
ATOM      7  C   CYS A   2      17.566  -0.838  -1.473  0.00  0.00    +0.228 C 
ATOM      8  O   CYS A   2      16.962   0.210  -1.254  0.00  0.00    -0.286 OA
ENDBRANCH   6   7
BRANCH   6   9
ATOM      9  CB  CYS A   2      19.820  -0.851  -2.528  0.00  0.00    +0.096 C 
ATOM     10  SG  CYS A   2      21.570  -0.446  -2.343  0.00  0.00    -0.080 S 
ENDBRANCH   6   9
ENDBRANCH   4   6
ENDBRANCH   1   2
BRANCH   1  11
ATOM     11  N   GLN A   1      19.265  -4.818   0.444  0.00  0.00    -0.238 NA
ATOM     12  H   GLN A   1      20.156  -5.301   0.210  0.00  0.00    +0.142 HD
ENDBRANCH   1  11
BRANCH   1  13
ATOM     13  CB  GLN A   1      20.662  -3.569   2.023  0.00  0.00    +0.036 C 
BRANCH  13  14
ATOM     14  CG  GLN A   1      21.073  -4.774   2.843  0.00  0.00    +0.087 C 
BRANCH  14  15
ATOM     15  CD  GLN A   1      21.844  -5.800   2.034  0.00  0.00    +0.219 C 
ATOM     16  NE2 GLN A   1      22.780  -6.476   2.686  0.00  0.00    -0.329 N 
ATOM     17 HE21 GLN A   1      22.954  -6.284   3.693  0.00  0.00    +0.145 HD
ATOM     18 HE22 GLN A   1      23.340  -7.199   2.190  0.00  0.00    +0.145 HD
ATOM     19  OE1 GLN A   1      21.596  -5.987   0.842  0.00  0.00    -0.275 OA
ENDBRANCH  14  15
ENDBRANCH  13  14
ENDBRANCH   1  13
TORSDOF 8
REMARK  Name = ../refined-set-2016/3b68/3b68_pocket.pdb
REMARK  284 active torsions:
REMARK  status: ('A' for Active; 'I' for Inactive)
REMARK    1  A    between atoms: _1  and  _3
REMARK    2  A    between atoms: _3  and  _4
REMARK    3  A    between atoms: _3  and  _6
REMARK    4  A    between atoms: _9  and  _11
REMARK    5  A    between atoms: _11  and  _12
REMARK    6  A    between atoms: _15  and  _17
REMARK    7  A    between atoms: _17  and  _18
REMARK    8  A    between atoms: _17  and  _20
REMARK    9  A    between atoms: _20  and  _21
REMARK   10  A    between atoms: _24  and  _26
REMARK   11  A    between atoms: _26  and  _27
REMARK   12  A    between atoms: _26  and  _29
REMARK   13  A    between atoms: _29  and  _30
REMARK   14  A    between atoms: _33  and  _35
REMARK   15  A    between atoms: _35  and  _36
REMARK   16  A    between atoms: _35  and  _38
REMARK   17  A    between atoms: _38  and  _39
REMARK   18  A    between atoms: _41  and  _43
REMARK   19  A    between atoms: _43  and  _44
REMARK   20  A    between atoms: _43  and  _46
REMARK   21  A    between atoms: _46  and  _47
REMARK   22  A    between atoms: _49  and  _51
REMARK   23  A    between atoms: _51  and  _52
REMARK   24  A    between atoms: _51  and  _54
REMARK   25  A    between atoms: _54  and  _55
REMARK   26  A    between atoms: _58  and  _60
REMARK   27  A    between atoms: _60  and  _61
REMARK   28  A    between atoms: _60  and  _63
REMARK   29  A    between atoms: _63  and  _64
REMARK   30  A    between atoms: _69  and  _71
REMARK   31  A    between atoms: _71  and  _72
REMARK   32  A    between atoms: _71  and  _74
REMARK   33  A    between atoms: _74  and  _75
REMARK   34  A    between atoms: _75  and  _76
REMARK   35  A    between atoms: _79  and  _81
REMARK   36  A    between atoms: _81  and  _82
REMARK   37  A    between atoms: _81  and  _84
REMARK   38  A    between atoms: _84  and  _85
REMARK   39  A    between atoms: _88  and  _90
REMARK   40  A    between atoms: _90  and  _91
REMARK   41  A    between atoms: _93  and  _95
REMARK   42  A    between atoms: _95  and  _96
REMARK   43  A    between atoms: _95  and  _98
REMARK   44  A    between atoms: _98  and  _99
REMARK   45  A    between atoms: _99  and  _100
REMARK   46  A    between atoms: _103  and  _105
REMARK   47  A    between atoms: _105  and  _106
REMARK   48  A    between atoms: _105  and  _108
REMARK   49  A    between atoms: _108  and  _109
REMARK   50  A    between atoms: _109  and  _110
REMARK   51  A    between atoms: _110  and  _111
REMARK   52  A    between atoms: _120  and  _122
REMARK   53  A    between atoms: _122  and  _123
REMARK   54  A    between atoms: _122  and  _125
REMARK   55  A    between atoms: _125  and  _126
REMARK   56  A    between atoms: _126  and  _127
REMARK   57  A    between atoms: _132  and  _134
REMARK   58  A    between atoms: _134  and  _135
REMARK   59  A    between atoms: _134  and  _137
REMARK   60  A    between atoms: _137  and  _138
REMARK   61  A    between atoms: _141  and  _143
REMARK   62  A    between atoms: _143  and  _144
REMARK   63  A    between atoms: _147  and  _149
REMARK   64  A    between atoms: _149  and  _150
REMARK   65  A    between atoms: _149  and  _152
REMARK   66  A    between atoms: _152  and  _153
REMARK   67  A    between atoms: _156  and  _158
REMARK   68  A    between atoms: _158  and  _159
REMARK   69  A    between atoms: _158  and  _161
REMARK   70  A    between atoms: _161  and  _162
REMARK   71  A    between atoms: _162  and  _163
REMARK   72  A    between atoms: _168  and  _170
REMARK   73  A    between atoms: _170  and  _171
REMARK   74  A    between atoms: _170  and  _173
REMARK   75  A    between atoms: _173  and  _174
REMARK   76  A    between atoms: _179  and  _180
REMARK   77  A    between atoms: _182  and  _184
REMARK   78  A    between atoms: _184  and  _185
REMARK   79  A    between atoms: _184  and  _187
REMARK   80  A    between atoms: _187  and  _188
REMARK   81  A    between atoms: _190  and  _192
REMARK   82  A    between atoms: _192  and  _193
REMARK   83  A    between atoms: _192  and  _195
REMARK   84  A    between atoms: _195  and  _196
REMARK   85  A    between atoms: _206  and  _208
REMARK   86  A    between atoms: _208  and  _209
REMARK   87  A    between atoms: _208  and  _211
REMARK   88  A    between atoms: _211  and  _212
REMARK   89  A    between atoms: _212  and  _213
REMARK   90  A    between atoms: _215  and  _217
REMARK   91  A    between atoms: _217  and  _218
REMARK   92  A    between atoms: _220  and  _222
REMARK   93  A    between atoms: _222  and  _223
REMARK   94  A    between atoms: _222  and  _225
REMARK   95  A    between atoms: _225  and  _226
REMARK   96  A    between atoms: _229  and  _231
REMARK   97  A    between atoms: _231  and  _232
REMARK   98  A    between atoms: _231  and  _234
REMARK   99  A    between atoms: _234  and  _235
REMARK  100  A    between atoms: _235  and  _236
REMARK  101  A    between atoms: _238  and  _240
REMARK  102  A    between atoms: _240  and  _241
REMARK  103  A    between atoms: _240  and  _243
REMARK  104  A    between atoms: _246  and  _248
REMARK  105  A    between atoms: _248  and  _249
REMARK  106  A    between atoms: _248  and  _251
REMARK  107  A    between atoms: _251  and  _252
REMARK  108  A    between atoms: _258  and  _260
REMARK  109  A    between atoms: _260  and  _261
REMARK  110  A    between atoms: _264  and  _266
REMARK  111  A    between atoms: _266  and  _267
REMARK  112  A    between atoms: _266  and  _269
REMARK  113  A    between atoms: _269  and  _270
REMARK  114  A    between atoms: _270  and  _271
REMARK  115  A    between atoms: _273  and  _275
REMARK  116  A    between atoms: _275  and  _276
REMARK  117  A    between atoms: _278  and  _280
REMARK  118  A    between atoms: _280  and  _281
REMARK  119  A    between atoms: _280  and  _283
REMARK  120  A    between atoms: _283  and  _284
REMARK  121  A    between atoms: _294  and  _296
REMARK  122  A    between atoms: _296  and  _297
REMARK  123  A    between atoms: _296  and  _299
REMARK  124  A    between atoms: _299  and  _300
REMARK  125  A    between atoms: _300  and  _301
REMARK  126  A    between atoms: _301  and  _302
REMARK  127  A    between atoms: _311  and  _313
REMARK  128  A    between atoms: _313  and  _314
REMARK  129  A    between atoms: _313  and  _316
REMARK  130  A    between atoms: _316  and  _317
REMARK  131  A    between atoms: _319  and  _321
REMARK  132  A    between atoms: _321  and  _322
REMARK  133  A    between atoms: _321  and  _324
REMARK  134  A    between atoms: _324  and  _325
REMARK  135  A    between atoms: _328  and  _330
REMARK  136  A    between atoms: _330  and  _331
REMARK  137  A    between atoms: _330  and  _333
REMARK  138  A    between atoms: _333  and  _334
REMARK  139  A    between atoms: _339  and  _340
REMARK  140  A    between atoms: _342  and  _344
REMARK  141  A    between atoms: _344  and  _345
REMARK  142  A    between atoms: _344  and  _347
REMARK  143  A    between atoms: _347  and  _348
REMARK  144  A    between atoms: _354  and  _356
REMARK  145  A    between atoms: _356  and  _357
REMARK  146  A    between atoms: _361  and  _362
REMARK  147  A    between atoms: _367  and  _369
REMARK  148  A    between atoms: _369  and  _370
REMARK  149  A    between atoms: _369  and  _372
REMARK  150  A    between atoms: _372  and  _373
REMARK  151  A    between atoms: _376  and  _378
REMARK  152  A    between atoms: _378  and  _379
REMARK  153  A    between atoms: _378  and  _381
REMARK  154  A    between atoms: _381  and  _382
REMARK  155  A    between atoms: _384  and  _386
REMARK  156  A    between atoms: _386  and  _387
REMARK  157  A    between atoms: _386  and  _389
REMARK  158  A    between atoms: _389  and  _390
REMARK  159  A    between atoms: _390  and  _391
REMARK  160  A    between atoms: _393  and  _395
REMARK  161  A    between atoms: _395  and  _396
REMARK  162  A    between atoms: _395  and  _398
REMARK  163  A    between atoms: _398  and  _399
REMARK  164  A    between atoms: _399  and  _400
REMARK  165  A    between atoms: _405  and  _407
REMARK  166  A    between atoms: _407  and  _408
REMARK  167  A    between atoms: _407  and  _410
REMARK  168  A    between atoms: _412  and  _414
REMARK  169  A    between atoms: _414  and  _415
REMARK  170  A    between atoms: _414  and  _417
REMARK  171  A    between atoms: _417  and  _418
REMARK  172  A    between atoms: _418  and  _419
REMARK  173  A    between atoms: _421  and  _423
REMARK  174  A    between atoms: _423  and  _424
REMARK  175  A    between atoms: _423  and  _426
REMARK  176  A    between atoms: _426  and  _427
REMARK  177  A    between atoms: _430  and  _432
REMARK  178  A    between atoms: _432  and  _433
REMARK  179  A    between atoms: _432  and  _435
REMARK  180  A    between atoms: _435  and  _436
REMARK  181  A    between atoms: _439  and  _441
REMARK  182  A    between atoms: _441  and  _442
REMARK  183  A    between atoms: _441  and  _444
REMARK  184  A    between atoms: _447  and  _449
REMARK  185  A    between atoms: _449  and  _450
REMARK  186  A    between atoms: _449  and  _452
REMARK  187  A    between atoms: _452  and  _453
REMARK  188  A    between atoms: _456  and  _458
REMARK  189  A    between atoms: _458  and  _459
REMARK  190  A    between atoms: _462  and  _464
REMARK  191  A    between atoms: _464  and  _465
REMARK  192  A    between atoms: _464  and  _467
REMARK  193  A    between atoms: _467  and  _468
REMARK  194  A    between atoms: _471  and  _473
REMARK  195  A    between atoms: _473  and  _474
REMARK  196  A    between atoms: _473  and  _476
REMARK  197  A    between atoms: _476  and  _477
REMARK  198  A    between atoms: _482  and  _484
REMARK  199  A    between atoms: _484  and  _485
REMARK  200  A    between atoms: _484  and  _487
REMARK  201  A    between atoms: _487  and  _488
REMARK  202  A    between atoms: _494  and  _496
REMARK  203  A    between atoms: _496  and  _497
REMARK  204  A    between atoms: _496  and  _499
REMARK  205  A    between atoms: _499  and  _500
REMARK  206  A    between atoms: _503  and  _505
REMARK  207  A    between atoms: _505  and  _506
REMARK  208  A    between atoms: _505  and  _508
REMARK  209  A    between atoms: _508  and  _509
REMARK  210  A    between atoms: _515  and  _517
REMARK  211  A    between atoms: _517  and  _518
REMARK  212  A    between atoms: _517  and  _520
REMARK  213  A    between atoms: _520  and  _521
REMARK  214  A    between atoms: _524  and  _526
REMARK  215  A    between atoms: _526  and  _527
REMARK  216  A    between atoms: _526  and  _529
REMARK  217  A    between atoms: _529  and  _530
REMARK  218  A    between atoms: _533  and  _535
REMARK  219  A    between atoms: _535  and  _536
REMARK  220  A    between atoms: _535  and  _538
REMARK  221  A    between atoms: _541  and  _543
REMARK  222  A    between atoms: _543  and  _544
REMARK  223  A    between atoms: _543  and  _546
REMARK  224  A    between atoms: _546  and  _547
REMARK  225  A    between atoms: _550  and  _552
REMARK  226  A    between atoms: _552  and  _553
REMARK  227  A    between atoms: _552  and  _555
REMARK  228  A    between atoms: _555  and  _556
REMARK  229  A    between atoms: _563  and  _564
REMARK  230  A    between atoms: _569  and  _571
REMARK  231  A    between atoms: _571  and  _572
REMARK  232  A    between atoms: _571  and  _574
REMARK  233  A    between atoms: _574  and  _575
REMARK  234  A    between atoms: _575  and  _576
REMARK  235  A    between atoms: _578  and  _580
REMARK  236  A    between atoms: _580  and  _581
REMARK  237  A    between atoms: _580  and  _583
REMARK  238  A    between atoms: _583  and  _584
REMARK  239  A    between atoms: _584  and  _585
REMARK  240  A    between atoms: _587  and  _589
REMARK  241  A    between atoms: _589  and  _590
REMARK  242  A    between atoms: _593  and  _595
REMARK  243  A    between atoms: _595  and  _596
REMARK  244  A    between atoms: _595  and  _598
REMARK  245  A    between atoms: _598  and  _599
REMARK  246  A    between atoms: _599  and  _600
REMARK  247  A    between atoms: _603  and  _605
REMARK  248  A    between atoms: _605  and  _606
REMARK  249  A    between atoms: _605  and  _608
REMARK  250  A    between atoms: _608  and  _609
REMARK  251  A    between atoms: _612  and  _614
REMARK  252  A    between atoms: _614  and  _615
REMARK  253  A    between atoms: _614  and  _617
REMARK  254  A    between atoms: _617  and  _618
REMARK  255  A    between atoms: _621  and  _623
REMARK  256  A    between atoms: _623  and  _624
REMARK  257  A    between atoms: _623  and  _626
REMARK  258  A    between atoms: _626  and  _627
REMARK  259  A    between atoms: _629  and  _631
REMARK  260  A    between atoms: _631  and  _632
REMARK  261  A    between atoms: _631  and  _634
REMARK  262  A    between atoms: _637  and  _639
REMARK  263  A    between atoms: _639  and  _640
REMARK  264  A    between atoms: _639  and  _642
REMARK  265  A    between atoms: _642  and  _643
REMARK  266  A    between atoms: _643  and  _644
REMARK  267  A    between atoms: _649  and  _651
REMARK  268  A    between atoms: _651  and  _652
REMARK  269  A    between atoms: _651  and  _654
REMARK  270  A    between atoms: _658  and  _659
REMARK  271  A    between atoms: _664  and  _666
REMARK  272  A    between atoms: _666  and  _667
REMARK  273  A    between atoms: _666  and  _669
REMARK  274  A    between atoms: _669  and  _670
REMARK  275  A    between atoms: _670  and  _671
REMARK  276  A    between atoms: _671  and  _672
REMARK  277  A    between atoms: _672  and  _673
REMARK  278  A    between atoms: _677  and  _679
REMARK  279  A    between atoms: _679  and  _680
REMARK  280  A    between atoms: _679  and  _682
REMARK  281  A    between atoms: _682  and  _683
REMARK  282  A    between atoms: _686  and  _688
REMARK  283  A    between atoms: _688  and  _689
REMARK  284  A    between atoms: _688  and  _691
REMARK                            x       y       z     vdW  Elec       q    Type
REMARK                         _______ _______ _______ _____ _____    ______ ____
ROOT
ATOM      1  CA  MET A   1      16.005   1.700   1.836  0.00  0.00    +0.134 C 
ENDROOT
BRANCH   1   2
ATOM      2  N   MET A   1      15.820   0.287   1.545  0.00  0.00    -0.239 NA
ATOM      3  H   MET A   1      16.602  -0.258   1.130  0.00  0.00    +0.142 HD
ENDBRANCH   1   2
BRANCH   1   4
ATOM      4  C   MET A   1      15.204   2.552   0.856  0.00  0.00    +0.224 C 
ATOM      5  O   MET A   1      14.774   3.650   1.204  0.00  0.00    -0.287 OA
ENDBRANCH   1   4
BRANCH   1   6
ATOM      6  CB  MET A   1      17.495   2.080   1.792  0.00  0.00    +0.037 C 
BRANCH   6   7
ATOM      7  CG  MET A   1      18.325   1.343   2.840  0.00  0.00    +0.059 C 
BRANCH   7   8
ATOM      8  SD  MET A   1      20.026   1.904   3.055  0.00  0.00    -0.139 S 
ATOM      9  CE  MET A   1      20.803   1.150   1.615  0.00  0.00    +0.069 C 
ENDBRANCH   7   8
ENDBRANCH   6   7
ENDBRANCH   1   6
TORSDOF 5
REMARK  Name = ../refined-set-2016/3b68/3b68_pocket.pdb
REMARK  284 active torsions:
REMARK  status: ('A' for Active; 'I' for Inactive)
REMARK    1  A    between atoms: _1  and  _3
REMARK    2  A    between atoms: _3  and  _4
REMARK    3  A    between atoms: _3  and  _6
REMARK    4  A    between atoms: _9  and  _11
REMARK    5  A    between atoms: _11  and  _12
REMARK    6  A    between atoms: _15  and  _17
REMARK    7  A    between atoms: _17  and  _18
REMARK    8  A    between atoms: _17  and  _20
REMARK    9  A    between atoms: _20  and  _21
REMARK   10  A    between atoms: _24  and  _26
REMARK   11  A    between atoms: _26  and  _27
REMARK   12  A    between atoms: _26  and  _29
REMARK   13  A    between atoms: _29  and  _30
REMARK   14  A    between atoms: _33  and  _35
REMARK   15  A    between atoms: _35  and  _36
REMARK   16  A    between atoms: _35  and  _38
REMARK   17  A    between atoms: _38  and  _39
REMARK   18  A    between atoms: _41  and  _43
REMARK   19  A    between atoms: _43  and  _44
REMARK   20  A    between atoms: _43  and  _46
REMARK   21  A    between atoms: _46  and  _47
REMARK   22  A    between atoms: _49  and  _51
REMARK   23  A    between atoms: _51  and  _52
REMARK   24  A    between atoms: _51  and  _54
REMARK   25  A    between atoms: _54  and  _55
REMARK   26  A    between atoms: _58  and  _60
REMARK   27  A    between atoms: _60  and  _61
REMARK   28  A    between atoms: _60  and  _63
REMARK   29  A    between atoms: _63  and  _64
REMARK   30  A    between atoms: _69  and  _71
REMARK   31  A    between atoms: _71  and  _72
REMARK   32  A    between atoms: _71  and  _74
REMARK   33  A    between atoms: _74  and  _75
REMARK   34  A    between atoms: _75  and  _76
REMARK   35  A    between atoms: _79  and  _81
REMARK   36  A    between atoms: _81  and  _82
REMARK   37  A    between atoms: _81  and  _84
REMARK   38  A    between atoms: _84  and  _85
REMARK   39  A    between atoms: _88  and  _90
REMARK   40  A    between atoms: _90  and  _91
REMARK   41  A    between atoms: _93  and  _95
REMARK   42  A    between atoms: _95  and  _96
REMARK   43  A    between atoms: _95  and  _98
REMARK   44  A    between atoms: _98  and  _99
REMARK   45  A    between atoms: _99  and  _100
REMARK   46  A    between atoms: _103  and  _105
REMARK   47  A    between atoms: _105  and  _106
REMARK   48  A    between atoms: _105  and  _108
REMARK   49  A    between atoms: _108  and  _109
REMARK   50  A    between atoms: _109  and  _110
REMARK   51  A    between atoms: _110  and  _111
REMARK   52  A    between atoms: _120  and  _122
REMARK   53  A    between atoms: _122  and  _123
REMARK   54  A    between atoms: _122  and  _125
REMARK   55  A    between atoms: _125  and  _126
REMARK   56  A    between atoms: _126  and  _127
REMARK   57  A    between atoms: _132  and  _134
REMARK   58  A    between atoms: _134  and  _135
REMARK   59  A    between atoms: _134  and  _137
REMARK   60  A    between atoms: _137  and  _138
REMARK   61  A    between atoms: _141  and  _143
REMARK   62  A    between atoms: _143  and  _144
REMARK   63  A    between atoms: _147  and  _149
REMARK   64  A    between atoms: _149  and  _150
REMARK   65  A    between atoms: _149  and  _152
REMARK   66  A    between atoms: _152  and  _153
REMARK   67  A    between atoms: _156  and  _158
REMARK   68  A    between atoms: _158  and  _159
REMARK   69  A    between atoms: _158  and  _161
REMARK   70  A    between atoms: _161  and  _162
REMARK   71  A    between atoms: _162  and  _163
REMARK   72  A    between atoms: _168  and  _170
REMARK   73  A    between atoms: _170  and  _171
REMARK   74  A    between atoms: _170  and  _173
REMARK   75  A    between atoms: _173  and  _174
REMARK   76  A    between atoms: _179  and  _180
REMARK   77  A    between atoms: _182  and  _184
REMARK   78  A    between atoms: _184  and  _185
REMARK   79  A    between atoms: _184  and  _187
REMARK   80  A    between atoms: _187  and  _188
REMARK   81  A    between atoms: _190  and  _192
REMARK   82  A    between atoms: _192  and  _193
REMARK   83  A    between atoms: _192  and  _195
REMARK   84  A    between atoms: _195  and  _196
REMARK   85  A    between atoms: _206  and  _208
REMARK   86  A    between atoms: _208  and  _209
REMARK   87  A    between atoms: _208  and  _211
REMARK   88  A    between atoms: _211  and  _212
REMARK   89  A    between atoms: _212  and  _213
REMARK   90  A    between atoms: _215  and  _217
REMARK   91  A    between atoms: _217  and  _218
REMARK   92  A    between atoms: _220  and  _222
REMARK   93  A    between atoms: _222  and  _223
REMARK   94  A    between atoms: _222  and  _225
REMARK   95  A    between atoms: _225  and  _226
REMARK   96  A    between atoms: _229  and  _231
REMARK   97  A    between atoms: _231  and  _232
REMARK   98  A    between atoms: _231  and  _234
REMARK   99  A    between atoms: _234  and  _235
REMARK  100  A    between atoms: _235  and  _236
REMARK  101  A    between atoms: _238  and  _240
REMARK  102  A    between atoms: _240  and  _241
REMARK  103  A    between atoms: _240  and  _243
REMARK  104  A    between atoms: _246  and  _248
REMARK  105  A    between atoms: _248  and  _249
REMARK  106  A    between atoms: _248  and  _251
REMARK  107  A    between atoms: _251  and  _252
REMARK  108  A    between atoms: _258  and  _260
REMARK  109  A    between atoms: _260  and  _261
REMARK  110  A    between atoms: _264  and  _266
REMARK  111  A    between atoms: _266  and  _267
REMARK  112  A    between atoms: _266  and  _269
REMARK  113  A    between atoms: _269  and  _270
REMARK  114  A    between atoms: _270  and  _271
REMARK  115  A    between atoms: _273  and  _275
REMARK  116  A    between atoms: _275  and  _276
REMARK  117  A    between atoms: _278  and  _280
REMARK  118  A    between atoms: _280  and  _281
REMARK  119  A    between atoms: _280  and  _283
REMARK  120  A    between atoms: _283  and  _284
REMARK  121  A    between atoms: _294  and  _296
REMARK  122  A    between atoms: _296  and  _297
REMARK  123  A    between atoms: _296  and  _299
REMARK  124  A    between atoms: _299  and  _300
REMARK  125  A    between atoms: _300  and  _301
REMARK  126  A    between atoms: _301  and  _302
REMARK  127  A    between atoms: _311  and  _313
REMARK  128  A    between atoms: _313  and  _314
REMARK  129  A    between atoms: _313  and  _316
REMARK  130  A    between atoms: _316  and  _317
REMARK  131  A    between atoms: _319  and  _321
REMARK  132  A    between atoms: _321  and  _322
REMARK  133  A    between atoms: _321  and  _324
REMARK  134  A    between atoms: _324  and  _325
REMARK  135  A    between atoms: _328  and  _330
REMARK  136  A    between atoms: _330  and  _331
REMARK  137  A    between atoms: _330  and  _333
REMARK  138  A    between atoms: _333  and  _334
REMARK  139  A    between atoms: _339  and  _340
REMARK  140  A    between atoms: _342  and  _344
REMARK  141  A    between atoms: _344  and  _345
REMARK  142  A    between atoms: _344  and  _347
REMARK  143  A    between atoms: _347  and  _348
REMARK  144  A    between atoms: _354  and  _356
REMARK  145  A    between atoms: _356  and  _357
REMARK  146  A    between atoms: _361  and  _362
REMARK  147  A    between atoms: _367  and  _369
REMARK  148  A    between atoms: _369  and  _370
REMARK  149  A    between atoms: _369  and  _372
REMARK  150  A    between atoms: _372  and  _373
REMARK  151  A    between atoms: _376  and  _378
REMARK  152  A    between atoms: _378  and  _379
REMARK  153  A    between atoms: _378  and  _381
REMARK  154  A    between atoms: _381  and  _382
REMARK  155  A    between atoms: _384  and  _386
REMARK  156  A    between atoms: _386  and  _387
REMARK  157  A    between atoms: _386  and  _389
REMARK  158  A    between atoms: _389  and  _390
REMARK  159  A    between atoms: _390  and  _391
REMARK  160  A    between atoms: _393  and  _395
REMARK  161  A    between atoms: _395  and  _396
REMARK  162  A    between atoms: _395  and  _398
REMARK  163  A    between atoms: _398  and  _399
REMARK  164  A    between atoms: _399  and  _400
REMARK  165  A    between atoms: _405  and  _407
REMARK  166  A    between atoms: _407  and  _408
REMARK  167  A    between atoms: _407  and  _410
REMARK  168  A    between atoms: _412  and  _414
REMARK  169  A    between atoms: _414  and  _415
REMARK  170  A    between atoms: _414  and  _417
REMARK  171  A    between atoms: _417  and  _418
REMARK  172  A    between atoms: _418  and  _419
REMARK  173  A    between atoms: _421  and  _423
REMARK  174  A    between atoms: _423  and  _424
REMARK  175  A    between atoms: _423  and  _426
REMARK  176  A    between atoms: _426  and  _427
REMARK  177  A    between atoms: _430  and  _432
REMARK  178  A    between atoms: _432  and  _433
REMARK  179  A    between atoms: _432  and  _435
REMARK  180  A    between atoms: _435  and  _436
REMARK  181  A    between atoms: _439  and  _441
REMARK  182  A    between atoms: _441  and  _442
REMARK  183  A    between atoms: _441  and  _444
REMARK  184  A    between atoms: _447  and  _449
REMARK  185  A    between atoms: _449  and  _450
REMARK  186  A    between atoms: _449  and  _452
REMARK  187  A    between atoms: _452  and  _453
REMARK  188  A    between atoms: _456  and  _458
REMARK  189  A    between atoms: _458  and  _459
REMARK  190  A    between atoms: _462  and  _464
REMARK  191  A    between atoms: _464  and  _465
REMARK  192  A    between atoms: _464  and  _467
REMARK  193  A    between atoms: _467  and  _468
REMARK  194  A    between atoms: _471  and  _473
REMARK  195  A    between atoms: _473  and  _474
REMARK  196  A    between atoms: _473  and  _476
REMARK  197  A    between atoms: _476  and  _477
REMARK  198  A    between atoms: _482  and  _484
REMARK  199  A    between atoms: _484  and  _485
REMARK  200  A    between atoms: _484  and  _487
REMARK  201  A    between atoms: _487  and  _488
REMARK  202  A    between atoms: _494  and  _496
REMARK  203  A    between atoms: _496  and  _497
REMARK  204  A    between atoms: _496  and  _499
REMARK  205  A    between atoms: _499  and  _500
REMARK  206  A    between atoms: _503  and  _505
REMARK  207  A    between atoms: _505  and  _506
REMARK  208  A    between atoms: _505  and  _508
REMARK  209  A    between atoms: _508  and  _509
REMARK  210  A    between atoms: _515  and  _517
REMARK  211  A    between atoms: _517  and  _518
REMARK  212  A    between atoms: _517  and  _520
REMARK  213  A    between atoms: _520  and  _521
REMARK  214  A    between atoms: _524  and  _526
REMARK  215  A    between atoms: _526  and  _527
REMARK  216  A    between atoms: _526  and  _529
REMARK  217  A    between atoms: _529  and  _530
REMARK  218  A    between atoms: _533  and  _535
REMARK  219  A    between atoms: _535  and  _536
REMARK  220  A    between atoms: _535  and  _538
REMARK  221  A    between atoms: _541  and  _543
REMARK  222  A    between atoms: _543  and  _544
REMARK  223  A    between atoms: _543  and  _546
REMARK  224  A    between atoms: _546  and  _547
REMARK  225  A    between atoms: _550  and  _552
REMARK  226  A    between atoms: _552  and  _553
REMARK  227  A    between atoms: _552  and  _555
REMARK  228  A    between atoms: _555  and  _556
REMARK  229  A    between atoms: _563  and  _564
REMARK  230  A    between atoms: _569  and  _571
REMARK  231  A    between atoms: _571  and  _572
REMARK  232  A    between atoms: _571  and  _574
REMARK  233  A    between atoms: _574  and  _575
REMARK  234  A    between atoms: _575  and  _576
REMARK  235  A    between atoms: _578  and  _580
REMARK  236  A    between atoms: _580  and  _581
REMARK  237  A    between atoms: _580  and  _583
REMARK  238  A    between atoms: _583  and  _584
REMARK  239  A    between atoms: _584  and  _585
REMARK  240  A    between atoms: _587  and  _589
REMARK  241  A    between atoms: _589  and  _590
REMARK  242  A    between atoms: _593  and  _595
REMARK  243  A    between atoms: _595  and  _596
REMARK  244  A    between atoms: _595  and  _598
REMARK  245  A    between atoms: _598  and  _599
REMARK  246  A    between atoms: _599  and  _600
REMARK  247  A    between atoms: _603  and  _605
REMARK  248  A    between atoms: _605  and  _606
REMARK  249  A    between atoms: _605  and  _608
REMARK  250  A    between atoms: _608  and  _609
REMARK  251  A    between atoms: _612  and  _614
REMARK  252  A    between atoms: _614  and  _615
REMARK  253  A    between atoms: _614  and  _617
REMARK  254  A    between atoms: _617  and  _618
REMARK  255  A    between atoms: _621  and  _623
REMARK  256  A    between atoms: _623  and  _624
REMARK  257  A    between atoms: _623  and  _626
REMARK  258  A    between atoms: _626  and  _627
REMARK  259  A    between atoms: _629  and  _631
REMARK  260  A    between atoms: _631  and  _632
REMARK  261  A    between atoms: _631  and  _634
REMARK  262  A    between atoms: _637  and  _639
REMARK  263  A    between atoms: _639  and  _640
REMARK  264  A    between atoms: _639  and  _642
REMARK  265  A    between atoms: _642  and  _643
REMARK  266  A    between atoms: _643  and  _644
REMARK  267  A    between atoms: _649  and  _651
REMARK  268  A    between atoms: _651  and  _652
REMARK  269  A    between atoms: _651  and  _654
REMARK  270  A    between atoms: _658  and  _659
REMARK  271  A    between atoms: _664  and  _666
REMARK  272  A    between atoms: _666  and  _667
REMARK  273  A    between atoms: _666  and  _669
REMARK  274  A    between atoms: _669  and  _670
REMARK  275  A    between atoms: _670  and  _671
REMARK  276  A    between atoms: _671  and  _672
REMARK  277  A    between atoms: _672  and  _673
REMARK  278  A    between atoms: _677  and  _679
REMARK  279  A    between atoms: _679  and  _680
REMARK  280  A    between atoms: _679  and  _682
REMARK  281  A    between atoms: _682  and  _683
REMARK  282  A    between atoms: _686  and  _688
REMARK  283  A    between atoms: _688  and  _689
REMARK  284  A    between atoms: _688  and  _691
REMARK                            x       y       z     vdW  Elec       q    Type
REMARK                         _______ _______ _______ _____ _____    ______ ____
ROOT
ATOM      1  CA  LEU A   1      11.887   3.549   3.445  0.00  0.00    +0.133 C 
ENDROOT
BRANCH   1   2
ATOM      2  N   LEU A   1      11.882   2.681   2.269  0.00  0.00    -0.239 NA
ATOM      3  H   LEU A   1      12.734   2.128   2.048  0.00  0.00    +0.142 HD
ENDBRANCH   1   2
BRANCH   1   4
ATOM      4  C   LEU A   1      11.723   4.976   2.944  0.00  0.00    +0.224 C 
ATOM      5  O   LEU A   1      10.943   5.770   3.482  0.00  0.00    -0.287 OA
ENDBRANCH   1   4
BRANCH   1   6
ATOM      6  CB  LEU A   1      13.215   3.392   4.198  0.00  0.00    +0.025 C 
BRANCH   6   7
ATOM      7  CG  LEU A   1      13.478   4.096   5.538  0.00  0.00    +0.002 C 
ATOM      8  CD2 LEU A   1      12.164   4.502   6.205  0.00  0.00    +0.000 C 
ATOM      9  CD1 LEU A   1      14.385   5.279   5.313  0.00  0.00    +0.000 C 
ENDBRANCH   6   7
ENDBRANCH   1   6
TORSDOF 4
REMARK  Name = ../refined-set-2016/3b68/3b68_pocket.pdb
REMARK  284 active torsions:
REMARK  status: ('A' for Active; 'I' for Inactive)
REMARK    1  A    between atoms: _1  and  _3
REMARK    2  A    between atoms: _3  and  _4
REMARK    3  A    between atoms: _3  and  _6
REMARK    4  A    between atoms: _9  and  _11
REMARK    5  A    between atoms: _11  and  _12
REMARK    6  A    between atoms: _15  and  _17
REMARK    7  A    between atoms: _17  and  _18
REMARK    8  A    between atoms: _17  and  _20
REMARK    9  A    between atoms: _20  and  _21
REMARK   10  A    between atoms: _24  and  _26
REMARK   11  A    between atoms: _26  and  _27
REMARK   12  A    between atoms: _26  and  _29
REMARK   13  A    between atoms: _29  and  _30
REMARK   14  A    between atoms: _33  and  _35
REMARK   15  A    between atoms: _35  and  _36
REMARK   16  A    between atoms: _35  and  _38
REMARK   17  A    between atoms: _38  and  _39
REMARK   18  A    between atoms: _41  and  _43
REMARK   19  A    between atoms: _43  and  _44
REMARK   20  A    between atoms: _43  and  _46
REMARK   21  A    between atoms: _46  and  _47
REMARK   22  A    between atoms: _49  and  _51
REMARK   23  A    between atoms: _51  and  _52
REMARK   24  A    between atoms: _51  and  _54
REMARK   25  A    between atoms: _54  and  _55
REMARK   26  A    between atoms: _58  and  _60
REMARK   27  A    between atoms: _60  and  _61
REMARK   28  A    between atoms: _60  and  _63
REMARK   29  A    between atoms: _63  and  _64
REMARK   30  A    between atoms: _69  and  _71
REMARK   31  A    between atoms: _71  and  _72
REMARK   32  A    between atoms: _71  and  _74
REMARK   33  A    between atoms: _74  and  _75
REMARK   34  A    between atoms: _75  and  _76
REMARK   35  A    between atoms: _79  and  _81
REMARK   36  A    between atoms: _81  and  _82
REMARK   37  A    between atoms: _81  and  _84
REMARK   38  A    between atoms: _84  and  _85
REMARK   39  A    between atoms: _88  and  _90
REMARK   40  A    between atoms: _90  and  _91
REMARK   41  A    between atoms: _93  and  _95
REMARK   42  A    between atoms: _95  and  _96
REMARK   43  A    between atoms: _95  and  _98
REMARK   44  A    between atoms: _98  and  _99
REMARK   45  A    between atoms: _99  and  _100
REMARK   46  A    between atoms: _103  and  _105
REMARK   47  A    between atoms: _105  and  _106
REMARK   48  A    between atoms: _105  and  _108
REMARK   49  A    between atoms: _108  and  _109
REMARK   50  A    between atoms: _109  and  _110
REMARK   51  A    between atoms: _110  and  _111
REMARK   52  A    between atoms: _120  and  _122
REMARK   53  A    between atoms: _122  and  _123
REMARK   54  A    between atoms: _122  and  _125
REMARK   55  A    between atoms: _125  and  _126
REMARK   56  A    between atoms: _126  and  _127
REMARK   57  A    between atoms: _132  and  _134
REMARK   58  A    between atoms: _134  and  _135
REMARK   59  A    between atoms: _134  and  _137
REMARK   60  A    between atoms: _137  and  _138
REMARK   61  A    between atoms: _141  and  _143
REMARK   62  A    between atoms: _143  and  _144
REMARK   63  A    between atoms: _147  and  _149
REMARK   64  A    between atoms: _149  and  _150
REMARK   65  A    between atoms: _149  and  _152
REMARK   66  A    between atoms: _152  and  _153
REMARK   67  A    between atoms: _156  and  _158
REMARK   68  A    between atoms: _158  and  _159
REMARK   69  A    between atoms: _158  and  _161
REMARK   70  A    between atoms: _161  and  _162
REMARK   71  A    between atoms: _162  and  _163
REMARK   72  A    between atoms: _168  and  _170
REMARK   73  A    between atoms: _170  and  _171
REMARK   74  A    between atoms: _170  and  _173
REMARK   75  A    between atoms: _173  and  _174
REMARK   76  A    between atoms: _179  and  _180
REMARK   77  A    between atoms: _182  and  _184
REMARK   78  A    between atoms: _184  and  _185
REMARK   79  A    between atoms: _184  and  _187
REMARK   80  A    between atoms: _187  and  _188
REMARK   81  A    between atoms: _190  and  _192
REMARK   82  A    between atoms: _192  and  _193
REMARK   83  A    between atoms: _192  and  _195
REMARK   84  A    between atoms: _195  and  _196
REMARK   85  A    between atoms: _206  and  _208
REMARK   86  A    between atoms: _208  and  _209
REMARK   87  A    between atoms: _208  and  _211
REMARK   88  A    between atoms: _211  and  _212
REMARK   89  A    between atoms: _212  and  _213
REMARK   90  A    between atoms: _215  and  _217
REMARK   91  A    between atoms: _217  and  _218
REMARK   92  A    between atoms: _220  and  _222
REMARK   93  A    between atoms: _222  and  _223
REMARK   94  A    between atoms: _222  and  _225
REMARK   95  A    between atoms: _225  and  _226
REMARK   96  A    between atoms: _229  and  _231
REMARK   97  A    between atoms: _231  and  _232
REMARK   98  A    between atoms: _231  and  _234
REMARK   99  A    between atoms: _234  and  _235
REMARK  100  A    between atoms: _235  and  _236
REMARK  101  A    between atoms: _238  and  _240
REMARK  102  A    between atoms: _240  and  _241
REMARK  103  A    between atoms: _240  and  _243
REMARK  104  A    between atoms: _246  and  _248
REMARK  105  A    between atoms: _248  and  _249
REMARK  106  A    between atoms: _248  and  _251
REMARK  107  A    between atoms: _251  and  _252
REMARK  108  A    between atoms: _258  and  _260
REMARK  109  A    between atoms: _260  and  _261
REMARK  110  A    between atoms: _264  and  _266
REMARK  111  A    between atoms: _266  and  _267
REMARK  112  A    between atoms: _266  and  _269
REMARK  113  A    between atoms: _269  and  _270
REMARK  114  A    between atoms: _270  and  _271
REMARK  115  A    between atoms: _273  and  _275
REMARK  116  A    between atoms: _275  and  _276
REMARK  117  A    between atoms: _278  and  _280
REMARK  118  A    between atoms: _280  and  _281
REMARK  119  A    between atoms: _280  and  _283
REMARK  120  A    between atoms: _283  and  _284
REMARK  121  A    between atoms: _294  and  _296
REMARK  122  A    between atoms: _296  and  _297
REMARK  123  A    between atoms: _296  and  _299
REMARK  124  A    between atoms: _299  and  _300
REMARK  125  A    between atoms: _300  and  _301
REMARK  126  A    between atoms: _301  and  _302
REMARK  127  A    between atoms: _311  and  _313
REMARK  128  A    between atoms: _313  and  _314
REMARK  129  A    between atoms: _313  and  _316
REMARK  130  A    between atoms: _316  and  _317
REMARK  131  A    between atoms: _319  and  _321
REMARK  132  A    between atoms: _321  and  _322
REMARK  133  A    between atoms: _321  and  _324
REMARK  134  A    between atoms: _324  and  _325
REMARK  135  A    between atoms: _328  and  _330
REMARK  136  A    between atoms: _330  and  _331
REMARK  137  A    between atoms: _330  and  _333
REMARK  138  A    between atoms: _333  and  _334
REMARK  139  A    between atoms: _339  and  _340
REMARK  140  A    between atoms: _342  and  _344
REMARK  141  A    between atoms: _344  and  _345
REMARK  142  A    between atoms: _344  and  _347
REMARK  143  A    between atoms: _347  and  _348
REMARK  144  A    between atoms: _354  and  _356
REMARK  145  A    between atoms: _356  and  _357
REMARK  146  A    between atoms: _361  and  _362
REMARK  147  A    between atoms: _367  and  _369
REMARK  148  A    between atoms: _369  and  _370
REMARK  149  A    between atoms: _369  and  _372
REMARK  150  A    between atoms: _372  and  _373
REMARK  151  A    between atoms: _376  and  _378
REMARK  152  A    between atoms: _378  and  _379
REMARK  153  A    between atoms: _378  and  _381
REMARK  154  A    between atoms: _381  and  _382
REMARK  155  A    between atoms: _384  and  _386
REMARK  156  A    between atoms: _386  and  _387
REMARK  157  A    between atoms: _386  and  _389
REMARK  158  A    between atoms: _389  and  _390
REMARK  159  A    between atoms: _390  and  _391
REMARK  160  A    between atoms: _393  and  _395
REMARK  161  A    between atoms: _395  and  _396
REMARK  162  A    between atoms: _395  and  _398
REMARK  163  A    between atoms: _398  and  _399
REMARK  164  A    between atoms: _399  and  _400
REMARK  165  A    between atoms: _405  and  _407
REMARK  166  A    between atoms: _407  and  _408
REMARK  167  A    between atoms: _407  and  _410
REMARK  168  A    between atoms: _412  and  _414
REMARK  169  A    between atoms: _414  and  _415
REMARK  170  A    between atoms: _414  and  _417
REMARK  171  A    between atoms: _417  and  _418
REMARK  172  A    between atoms: _418  and  _419
REMARK  173  A    between atoms: _421  and  _423
REMARK  174  A    between atoms: _423  and  _424
REMARK  175  A    between atoms: _423  and  _426
REMARK  176  A    between atoms: _426  and  _427
REMARK  177  A    between atoms: _430  and  _432
REMARK  178  A    between atoms: _432  and  _433
REMARK  179  A    between atoms: _432  and  _435
REMARK  180  A    between atoms: _435  and  _436
REMARK  181  A    between atoms: _439  and  _441
REMARK  182  A    between atoms: _441  and  _442
REMARK  183  A    between atoms: _441  and  _444
REMARK  184  A    between atoms: _447  and  _449
REMARK  185  A    between atoms: _449  and  _450
REMARK  186  A    between atoms: _449  and  _452
REMARK  187  A    between atoms: _452  and  _453
REMARK  188  A    between atoms: _456  and  _458
REMARK  189  A    between atoms: _458  and  _459
REMARK  190  A    between atoms: _462  and  _464
REMARK  191  A    between atoms: _464  and  _465
REMARK  192  A    between atoms: _464  and  _467
REMARK  193  A    between atoms: _467  and  _468
REMARK  194  A    between atoms: _471  and  _473
REMARK  195  A    between atoms: _473  and  _474
REMARK  196  A    between atoms: _473  and  _476
REMARK  197  A    between atoms: _476  and  _477
REMARK  198  A    between atoms: _482  and  _484
REMARK  199  A    between atoms: _484  and  _485
REMARK  200  A    between atoms: _484  and  _487
REMARK  201  A    between atoms: _487  and  _488
REMARK  202  A    between atoms: _494  and  _496
REMARK  203  A    between atoms: _496  and  _497
REMARK  204  A    between atoms: _496  and  _499
REMARK  205  A    between atoms: _499  and  _500
REMARK  206  A    between atoms: _503  and  _505
REMARK  207  A    between atoms: _505  and  _506
REMARK  208  A    between atoms: _505  and  _508
REMARK  209  A    between atoms: _508  and  _509
REMARK  210  A    between atoms: _515  and  _517
REMARK  211  A    between atoms: _517  and  _518
REMARK  212  A    between atoms: _517  and  _520
REMARK  213  A    between atoms: _520  and  _521
REMARK  214  A    between atoms: _524  and  _526
REMARK  215  A    between atoms: _526  and  _527
REMARK  216  A    between atoms: _526  and  _529
REMARK  217  A    between atoms: _529  and  _530
REMARK  218  A    between atoms: _533  and  _535
REMARK  219  A    between atoms: _535  and  _536
REMARK  220  A    between atoms: _535  and  _538
REMARK  221  A    between atoms: _541  and  _543
REMARK  222  A    between atoms: _543  and  _544
REMARK  223  A    between atoms: _543  and  _546
REMARK  224  A    between atoms: _546  and  _547
REMARK  225  A    between atoms: _550  and  _552
REMARK  226  A    between atoms: _552  and  _553
REMARK  227  A    between atoms: _552  and  _555
REMARK  228  A    between atoms: _555  and  _556
REMARK  229  A    between atoms: _563  and  _564
REMARK  230  A    between atoms: _569  and  _571
REMARK  231  A    between atoms: _571  and  _572
REMARK  232  A    between atoms: _571  and  _574
REMARK  233  A    between atoms: _574  and  _575
REMARK  234  A    between atoms: _575  and  _576
REMARK  235  A    between atoms: _578  and  _580
REMARK  236  A    between atoms: _580  and  _581
REMARK  237  A    between atoms: _580  and  _583
REMARK  238  A    between atoms: _583  and  _584
REMARK  239  A    between atoms: _584  and  _585
REMARK  240  A    between atoms: _587  and  _589
REMARK  241  A    between atoms: _589  and  _590
REMARK  242  A    between atoms: _593  and  _595
REMARK  243  A    between atoms: _595  and  _596
REMARK  244  A    between atoms: _595  and  _598
REMARK  245  A    between atoms: _598  and  _599
REMARK  246  A    between atoms: _599  and  _600
REMARK  247  A    between atoms: _603  and  _605
REMARK  248  A    between atoms: _605  and  _606
REMARK  249  A    between atoms: _605  and  _608
REMARK  250  A    between atoms: _608  and  _609
REMARK  251  A    between atoms: _612  and  _614
REMARK  252  A    between atoms: _614  and  _615
REMARK  253  A    between atoms: _614  and  _617
REMARK  254  A    between atoms: _617  and  _618
REMARK  255  A    between atoms: _621  and  _623
REMARK  256  A    between atoms: _623  and  _624
REMARK  257  A    between atoms: _623  and  _626
REMARK  258  A    between atoms: _626  and  _627
REMARK  259  A    between atoms: _629  and  _631
REMARK  260  A    between atoms: _631  and  _632
REMARK  261  A    between atoms: _631  and  _634
REMARK  262  A    between atoms: _637  and  _639
REMARK  263  A    between atoms: _639  and  _640
REMARK  264  A    between atoms: _639  and  _642
REMARK  265  A    between atoms: _642  and  _643
REMARK  266  A    between atoms: _643  and  _644
REMARK  267  A    between atoms: _649  and  _651
REMARK  268  A    between atoms: _651  and  _652
REMARK  269  A    between atoms: _651  and  _654
REMARK  270  A    between atoms: _658  and  _659
REMARK  271  A    between atoms: _664  and  _666
REMARK  272  A    between atoms: _666  and  _667
REMARK  273  A    between atoms: _666  and  _669
REMARK  274  A    between atoms: _669  and  _670
REMARK  275  A    between atoms: _670  and  _671
REMARK  276  A    between atoms: _671  and  _672
REMARK  277  A    between atoms: _672  and  _673
REMARK  278  A    between atoms: _677  and  _679
REMARK  279  A    between atoms: _679  and  _680
REMARK  280  A    between atoms: _679  and  _682
REMARK  281  A    between atoms: _682  and  _683
REMARK  282  A    between atoms: _686  and  _688
REMARK  283  A    between atoms: _688  and  _689
REMARK  284  A    between atoms: _688  and  _691
REMARK                            x       y       z     vdW  Elec       q    Type
REMARK                         _______ _______ _______ _____ _____    ______ ____
ROOT
ATOM      1  CA  ILE A   1      20.569   0.448  20.443  0.00  0.00    +0.133 C 
ENDROOT
BRANCH   1   2
ATOM      2  N   ILE A   1      19.778   1.676  20.531  0.00  0.00    -0.239 NA
ATOM      3  H   ILE A   1      20.144   2.470  21.095  0.00  0.00    +0.142 HD
ENDBRANCH   1   2
BRANCH   1   4
ATOM      4  C   ILE A   1      21.567   0.395  21.604  0.00  0.00    +0.224 C 
ATOM      5  O   ILE A   1      22.542   1.141  21.624  0.00  0.00    -0.287 OA
ENDBRANCH   1   4
BRANCH   1   6
ATOM      6  CB  ILE A   1      21.317   0.345  19.079  0.00  0.00    +0.023 C 
ATOM      7  CG2 ILE A   1      22.233   1.539  18.875  0.00  0.00    +0.002 C 
BRANCH   6   8
ATOM      8  CG1 ILE A   1      22.100  -0.966  19.025  0.00  0.00    +0.002 C 
ATOM      9  CD1 ILE A   1      22.600  -1.332  17.640  0.00  0.00    +0.000 C 
ENDBRANCH   6   8
ENDBRANCH   1   6
TORSDOF 4
REMARK  Name = ../refined-set-2016/3b68/3b68_pocket.pdb
REMARK  284 active torsions:
REMARK  status: ('A' for Active; 'I' for Inactive)
REMARK    1  A    between atoms: _1  and  _3
REMARK    2  A    between atoms: _3  and  _4
REMARK    3  A    between atoms: _3  and  _6
REMARK    4  A    between atoms: _9  and  _11
REMARK    5  A    between atoms: _11  and  _12
REMARK    6  A    between atoms: _15  and  _17
REMARK    7  A    between atoms: _17  and  _18
REMARK    8  A    between atoms: _17  and  _20
REMARK    9  A    between atoms: _20  and  _21
REMARK   10  A    between atoms: _24  and  _26
REMARK   11  A    between atoms: _26  and  _27
REMARK   12  A    between atoms: _26  and  _29
REMARK   13  A    between atoms: _29  and  _30
REMARK   14  A    between atoms: _33  and  _35
REMARK   15  A    between atoms: _35  and  _36
REMARK   16  A    between atoms: _35  and  _38
REMARK   17  A    between atoms: _38  and  _39
REMARK   18  A    between atoms: _41  and  _43
REMARK   19  A    between atoms: _43  and  _44
REMARK   20  A    between atoms: _43  and  _46
REMARK   21  A    between atoms: _46  and  _47
REMARK   22  A    between atoms: _49  and  _51
REMARK   23  A    between atoms: _51  and  _52
REMARK   24  A    between atoms: _51  and  _54
REMARK   25  A    between atoms: _54  and  _55
REMARK   26  A    between atoms: _58  and  _60
REMARK   27  A    between atoms: _60  and  _61
REMARK   28  A    between atoms: _60  and  _63
REMARK   29  A    between atoms: _63  and  _64
REMARK   30  A    between atoms: _69  and  _71
REMARK   31  A    between atoms: _71  and  _72
REMARK   32  A    between atoms: _71  and  _74
REMARK   33  A    between atoms: _74  and  _75
REMARK   34  A    between atoms: _75  and  _76
REMARK   35  A    between atoms: _79  and  _81
REMARK   36  A    between atoms: _81  and  _82
REMARK   37  A    between atoms: _81  and  _84
REMARK   38  A    between atoms: _84  and  _85
REMARK   39  A    between atoms: _88  and  _90
REMARK   40  A    between atoms: _90  and  _91
REMARK   41  A    between atoms: _93  and  _95
REMARK   42  A    between atoms: _95  and  _96
REMARK   43  A    between atoms: _95  and  _98
REMARK   44  A    between atoms: _98  and  _99
REMARK   45  A    between atoms: _99  and  _100
REMARK   46  A    between atoms: _103  and  _105
REMARK   47  A    between atoms: _105  and  _106
REMARK   48  A    between atoms: _105  and  _108
REMARK   49  A    between atoms: _108  and  _109
REMARK   50  A    between atoms: _109  and  _110
REMARK   51  A    between atoms: _110  and  _111
REMARK   52  A    between atoms: _120  and  _122
REMARK   53  A    between atoms: _122  and  _123
REMARK   54  A    between atoms: _122  and  _125
REMARK   55  A    between atoms: _125  and  _126
REMARK   56  A    between atoms: _126  and  _127
REMARK   57  A    between atoms: _132  and  _134
REMARK   58  A    between atoms: _134  and  _135
REMARK   59  A    between atoms: _134  and  _137
REMARK   60  A    between atoms: _137  and  _138
REMARK   61  A    between atoms: _141  and  _143
REMARK   62  A    between atoms: _143  and  _144
REMARK   63  A    between atoms: _147  and  _149
REMARK   64  A    between atoms: _149  and  _150
REMARK   65  A    between atoms: _149  and  _152
REMARK   66  A    between atoms: _152  and  _153
REMARK   67  A    between atoms: _156  and  _158
REMARK   68  A    between atoms: _158  and  _159
REMARK   69  A    between atoms: _158  and  _161
REMARK   70  A    between atoms: _161  and  _162
REMARK   71  A    between atoms: _162  and  _163
REMARK   72  A    between atoms: _168  and  _170
REMARK   73  A    between atoms: _170  and  _171
REMARK   74  A    between atoms: _170  and  _173
REMARK   75  A    between atoms: _173  and  _174
REMARK   76  A    between atoms: _179  and  _180
REMARK   77  A    between atoms: _182  and  _184
REMARK   78  A    between atoms: _184  and  _185
REMARK   79  A    between atoms: _184  and  _187
REMARK   80  A    between atoms: _187  and  _188
REMARK   81  A    between atoms: _190  and  _192
REMARK   82  A    between atoms: _192  and  _193
REMARK   83  A    between atoms: _192  and  _195
REMARK   84  A    between atoms: _195  and  _196
REMARK   85  A    between atoms: _206  and  _208
REMARK   86  A    between atoms: _208  and  _209
REMARK   87  A    between atoms: _208  and  _211
REMARK   88  A    between atoms: _211  and  _212
REMARK   89  A    between atoms: _212  and  _213
REMARK   90  A    between atoms: _215  and  _217
REMARK   91  A    between atoms: _217  and  _218
REMARK   92  A    between atoms: _220  and  _222
REMARK   93  A    between atoms: _222  and  _223
REMARK   94  A    between atoms: _222  and  _225
REMARK   95  A    between atoms: _225  and  _226
REMARK   96  A    between atoms: _229  and  _231
REMARK   97  A    between atoms: _231  and  _232
REMARK   98  A    between atoms: _231  and  _234
REMARK   99  A    between atoms: _234  and  _235
REMARK  100  A    between atoms: _235  and  _236
REMARK  101  A    between atoms: _238  and  _240
REMARK  102  A    between atoms: _240  and  _241
REMARK  103  A    between atoms: _240  and  _243
REMARK  104  A    between atoms: _246  and  _248
REMARK  105  A    between atoms: _248  and  _249
REMARK  106  A    between atoms: _248  and  _251
REMARK  107  A    between atoms: _251  and  _252
REMARK  108  A    between atoms: _258  and  _260
REMARK  109  A    between atoms: _260  and  _261
REMARK  110  A    between atoms: _264  and  _266
REMARK  111  A    between atoms: _266  and  _267
REMARK  112  A    between atoms: _266  and  _269
REMARK  113  A    between atoms: _269  and  _270
REMARK  114  A    between atoms: _270  and  _271
REMARK  115  A    between atoms: _273  and  _275
REMARK  116  A    between atoms: _275  and  _276
REMARK  117  A    between atoms: _278  and  _280
REMARK  118  A    between atoms: _280  and  _281
REMARK  119  A    between atoms: _280  and  _283
REMARK  120  A    between atoms: _283  and  _284
REMARK  121  A    between atoms: _294  and  _296
REMARK  122  A    between atoms: _296  and  _297
REMARK  123  A    between atoms: _296  and  _299
REMARK  124  A    between atoms: _299  and  _300
REMARK  125  A    between atoms: _300  and  _301
REMARK  126  A    between atoms: _301  and  _302
REMARK  127  A    between atoms: _311  and  _313
REMARK  128  A    between atoms: _313  and  _314
REMARK  129  A    between atoms: _313  and  _316
REMARK  130  A    between atoms: _316  and  _317
REMARK  131  A    between atoms: _319  and  _321
REMARK  132  A    between atoms: _321  and  _322
REMARK  133  A    between atoms: _321  and  _324
REMARK  134  A    between atoms: _324  and  _325
REMARK  135  A    between atoms: _328  and  _330
REMARK  136  A    between atoms: _330  and  _331
REMARK  137  A    between atoms: _330  and  _333
REMARK  138  A    between atoms: _333  and  _334
REMARK  139  A    between atoms: _339  and  _340
REMARK  140  A    between atoms: _342  and  _344
REMARK  141  A    between atoms: _344  and  _345
REMARK  142  A    between atoms: _344  and  _347
REMARK  143  A    between atoms: _347  and  _348
REMARK  144  A    between atoms: _354  and  _356
REMARK  145  A    between atoms: _356  and  _357
REMARK  146  A    between atoms: _361  and  _362
REMARK  147  A    between atoms: _367  and  _369
REMARK  148  A    between atoms: _369  and  _370
REMARK  149  A    between atoms: _369  and  _372
REMARK  150  A    between atoms: _372  and  _373
REMARK  151  A    between atoms: _376  and  _378
REMARK  152  A    between atoms: _378  and  _379
REMARK  153  A    between atoms: _378  and  _381
REMARK  154  A    between atoms: _381  and  _382
REMARK  155  A    between atoms: _384  and  _386
REMARK  156  A    between atoms: _386  and  _387
REMARK  157  A    between atoms: _386  and  _389
REMARK  158  A    between atoms: _389  and  _390
REMARK  159  A    between atoms: _390  and  _391
REMARK  160  A    between atoms: _393  and  _395
REMARK  161  A    between atoms: _395  and  _396
REMARK  162  A    between atoms: _395  and  _398
REMARK  163  A    between atoms: _398  and  _399
REMARK  164  A    between atoms: _399  and  _400
REMARK  165  A    between atoms: _405  and  _407
REMARK  166  A    between atoms: _407  and  _408
REMARK  167  A    between atoms: _407  and  _410
REMARK  168  A    between atoms: _412  and  _414
REMARK  169  A    between atoms: _414  and  _415
REMARK  170  A    between atoms: _414  and  _417
REMARK  171  A    between atoms: _417  and  _418
REMARK  172  A    between atoms: _418  and  _419
REMARK  173  A    between atoms: _421  and  _423
REMARK  174  A    between atoms: _423  and  _424
REMARK  175  A    between atoms: _423  and  _426
REMARK  176  A    between atoms: _426  and  _427
REMARK  177  A    between atoms: _430  and  _432
REMARK  178  A    between atoms: _432  and  _433
REMARK  179  A    between atoms: _432  and  _435
REMARK  180  A    between atoms: _435  and  _436
REMARK  181  A    between atoms: _439  and  _441
REMARK  182  A    between atoms: _441  and  _442
REMARK  183  A    between atoms: _441  and  _444
REMARK  184  A    between atoms: _447  and  _449
REMARK  185  A    between atoms: _449  and  _450
REMARK  186  A    between atoms: _449  and  _452
REMARK  187  A    between atoms: _452  and  _453
REMARK  188  A    between atoms: _456  and  _458
REMARK  189  A    between atoms: _458  and  _459
REMARK  190  A    between atoms: _462  and  _464
REMARK  191  A    between atoms: _464  and  _465
REMARK  192  A    between atoms: _464  and  _467
REMARK  193  A    between atoms: _467  and  _468
REMARK  194  A    between atoms: _471  and  _473
REMARK  195  A    between atoms: _473  and  _474
REMARK  196  A    between atoms: _473  and  _476
REMARK  197  A    between atoms: _476  and  _477
REMARK  198  A    between atoms: _482  and  _484
REMARK  199  A    between atoms: _484  and  _485
REMARK  200  A    between atoms: _484  and  _487
REMARK  201  A    between atoms: _487  and  _488
REMARK  202  A    between atoms: _494  and  _496
REMARK  203  A    between atoms: _496  and  _497
REMARK  204  A    between atoms: _496  and  _499
REMARK  205  A    between atoms: _499  and  _500
REMARK  206  A    between atoms: _503  and  _505
REMARK  207  A    between atoms: _505  and  _506
REMARK  208  A    between atoms: _505  and  _508
REMARK  209  A    between atoms: _508  and  _509
REMARK  210  A    between atoms: _515  and  _517
REMARK  211  A    between atoms: _517  and  _518
REMARK  212  A    between atoms: _517  and  _520
REMARK  213  A    between atoms: _520  and  _521
REMARK  214  A    between atoms: _524  and  _526
REMARK  215  A    between atoms: _526  and  _527
REMARK  216  A    between atoms: _526  and  _529
REMARK  217  A    between atoms: _529  and  _530
REMARK  218  A    between atoms: _533  and  _535
REMARK  219  A    between atoms: _535  and  _536
REMARK  220  A    between atoms: _535  and  _538
REMARK  221  A    between atoms: _541  and  _543
REMARK  222  A    between atoms: _543  and  _544
REMARK  223  A    between atoms: _543  and  _546
REMARK  224  A    between atoms: _546  and  _547
REMARK  225  A    between atoms: _550  and  _552
REMARK  226  A    between atoms: _552  and  _553
REMARK  227  A    between atoms: _552  and  _555
REMARK  228  A    between atoms: _555  and  _556
REMARK  229  A    between atoms: _563  and  _564
REMARK  230  A    between atoms: _569  and  _571
REMARK  231  A    between atoms: _571  and  _572
REMARK  232  A    between atoms: _571  and  _574
REMARK  233  A    between atoms: _574  and  _575
REMARK  234  A    between atoms: _575  and  _576
REMARK  235  A    between atoms: _578  and  _580
REMARK  236  A    between atoms: _580  and  _581
REMARK  237  A    between atoms: _580  and  _583
REMARK  238  A    between atoms: _583  and  _584
REMARK  239  A    between atoms: _584  and  _585
REMARK  240  A    between atoms: _587  and  _589
REMARK  241  A    between atoms: _589  and  _590
REMARK  242  A    between atoms: _593  and  _595
REMARK  243  A    between atoms: _595  and  _596
REMARK  244  A    between atoms: _595  and  _598
REMARK  245  A    between atoms: _598  and  _599
REMARK  246  A    between atoms: _599  and  _600
REMARK  247  A    between atoms: _603  and  _605
REMARK  248  A    between atoms: _605  and  _606
REMARK  249  A    between atoms: _605  and  _608
REMARK  250  A    between atoms: _608  and  _609
REMARK  251  A    between atoms: _612  and  _614
REMARK  252  A    between atoms: _614  and  _615
REMARK  253  A    between atoms: _614  and  _617
REMARK  254  A    between atoms: _617  and  _618
REMARK  255  A    between atoms: _621  and  _623
REMARK  256  A    between atoms: _623  and  _624
REMARK  257  A    between atoms: _623  and  _626
REMARK  258  A    between atoms: _626  and  _627
REMARK  259  A    between atoms: _629  and  _631
REMARK  260  A    between atoms: _631  and  _632
REMARK  261  A    between atoms: _631  and  _634
REMARK  262  A    between atoms: _637  and  _639
REMARK  263  A    between atoms: _639  and  _640
REMARK  264  A    between atoms: _639  and  _642
REMARK  265  A    between atoms: _642  and  _643
REMARK  266  A    between atoms: _643  and  _644
REMARK  267  A    between atoms: _649  and  _651
REMARK  268  A    between atoms: _651  and  _652
REMARK  269  A    between atoms: _651  and  _654
REMARK  270  A    between atoms: _658  and  _659
REMARK  271  A    between atoms: _664  and  _666
REMARK  272  A    between atoms: _666  and  _667
REMARK  273  A    between atoms: _666  and  _669
REMARK  274  A    between atoms: _669  and  _670
REMARK  275  A    between atoms: _670  and  _671
REMARK  276  A    between atoms: _671  and  _672
REMARK  277  A    between atoms: _672  and  _673
REMARK  278  A    between atoms: _677  and  _679
REMARK  279  A    between atoms: _679  and  _680
REMARK  280  A    between atoms: _679  and  _682
REMARK  281  A    between atoms: _682  and  _683
REMARK  282  A    between atoms: _686  and  _688
REMARK  283  A    between atoms: _688  and  _689
REMARK  284  A    between atoms: _688  and  _691
REMARK                            x       y       z     vdW  Elec       q    Type
REMARK                         _______ _______ _______ _____ _____    ______ ____
ROOT
ATOM      1  CA  VAL A   1      15.301   1.083  10.076  0.00  0.00    +0.133 C 
ENDROOT
BRANCH   1   2
ATOM      2  CB  VAL A   1      15.687   2.401  10.758  0.00  0.00    +0.023 C 
ATOM      3  CG2 VAL A   1      17.159   2.694  10.526  0.00  0.00    +0.002 C 
ATOM      4  CG1 VAL A   1      14.820   3.531  10.236  0.00  0.00    +0.002 C 
ENDBRANCH   1   2
BRANCH   1   5
ATOM      5  N   VAL A   1      13.921   0.728  10.376  0.00  0.00    -0.239 NA
ATOM      6  H   VAL A   1      13.413   1.240  11.125  0.00  0.00    +0.142 HD
ENDBRANCH   1   5
BRANCH   1   7
ATOM      7  C   VAL A   1      16.272   0.003  10.565  0.00  0.00    +0.224 C 
ATOM      8  O   VAL A   1      17.295  -0.259   9.933  0.00  0.00    -0.287 OA
ENDBRANCH   1   7
TORSDOF 3
REMARK  Name = ../refined-set-2016/3b68/3b68_pocket.pdb
REMARK  284 active torsions:
REMARK  status: ('A' for Active; 'I' for Inactive)
REMARK    1  A    between atoms: _1  and  _3
REMARK    2  A    between atoms: _3  and  _4
REMARK    3  A    between atoms: _3  and  _6
REMARK    4  A    between atoms: _9  and  _11
REMARK    5  A    between atoms: _11  and  _12
REMARK    6  A    between atoms: _15  and  _17
REMARK    7  A    between atoms: _17  and  _18
REMARK    8  A    between atoms: _17  and  _20
REMARK    9  A    between atoms: _20  and  _21
REMARK   10  A    between atoms: _24  and  _26
REMARK   11  A    between atoms: _26  and  _27
REMARK   12  A    between atoms: _26  and  _29
REMARK   13  A    between atoms: _29  and  _30
REMARK   14  A    between atoms: _33  and  _35
REMARK   15  A    between atoms: _35  and  _36
REMARK   16  A    between atoms: _35  and  _38
REMARK   17  A    between atoms: _38  and  _39
REMARK   18  A    between atoms: _41  and  _43
REMARK   19  A    between atoms: _43  and  _44
REMARK   20  A    between atoms: _43  and  _46
REMARK   21  A    between atoms: _46  and  _47
REMARK   22  A    between atoms: _49  and  _51
REMARK   23  A    between atoms: _51  and  _52
REMARK   24  A    between atoms: _51  and  _54
REMARK   25  A    between atoms: _54  and  _55
REMARK   26  A    between atoms: _58  and  _60
REMARK   27  A    between atoms: _60  and  _61
REMARK   28  A    between atoms: _60  and  _63
REMARK   29  A    between atoms: _63  and  _64
REMARK   30  A    between atoms: _69  and  _71
REMARK   31  A    between atoms: _71  and  _72
REMARK   32  A    between atoms: _71  and  _74
REMARK   33  A    between atoms: _74  and  _75
REMARK   34  A    between atoms: _75  and  _76
REMARK   35  A    between atoms: _79  and  _81
REMARK   36  A    between atoms: _81  and  _82
REMARK   37  A    between atoms: _81  and  _84
REMARK   38  A    between atoms: _84  and  _85
REMARK   39  A    between atoms: _88  and  _90
REMARK   40  A    between atoms: _90  and  _91
REMARK   41  A    between atoms: _93  and  _95
REMARK   42  A    between atoms: _95  and  _96
REMARK   43  A    between atoms: _95  and  _98
REMARK   44  A    between atoms: _98  and  _99
REMARK   45  A    between atoms: _99  and  _100
REMARK   46  A    between atoms: _103  and  _105
REMARK   47  A    between atoms: _105  and  _106
REMARK   48  A    between atoms: _105  and  _108
REMARK   49  A    between atoms: _108  and  _109
REMARK   50  A    between atoms: _109  and  _110
REMARK   51  A    between atoms: _110  and  _111
REMARK   52  A    between atoms: _120  and  _122
REMARK   53  A    between atoms: _122  and  _123
REMARK   54  A    between atoms: _122  and  _125
REMARK   55  A    between atoms: _125  and  _126
REMARK   56  A    between atoms: _126  and  _127
REMARK   57  A    between atoms: _132  and  _134
REMARK   58  A    between atoms: _134  and  _135
REMARK   59  A    between atoms: _134  and  _137
REMARK   60  A    between atoms: _137  and  _138
REMARK   61  A    between atoms: _141  and  _143
REMARK   62  A    between atoms: _143  and  _144
REMARK   63  A    between atoms: _147  and  _149
REMARK   64  A    between atoms: _149  and  _150
REMARK   65  A    between atoms: _149  and  _152
REMARK   66  A    between atoms: _152  and  _153
REMARK   67  A    between atoms: _156  and  _158
REMARK   68  A    between atoms: _158  and  _159
REMARK   69  A    between atoms: _158  and  _161
REMARK   70  A    between atoms: _161  and  _162
REMARK   71  A    between atoms: _162  and  _163
REMARK   72  A    between atoms: _168  and  _170
REMARK   73  A    between atoms: _170  and  _171
REMARK   74  A    between atoms: _170  and  _173
REMARK   75  A    between atoms: _173  and  _174
REMARK   76  A    between atoms: _179  and  _180
REMARK   77  A    between atoms: _182  and  _184
REMARK   78  A    between atoms: _184  and  _185
REMARK   79  A    between atoms: _184  and  _187
REMARK   80  A    between atoms: _187  and  _188
REMARK   81  A    between atoms: _190  and  _192
REMARK   82  A    between atoms: _192  and  _193
REMARK   83  A    between atoms: _192  and  _195
REMARK   84  A    between atoms: _195  and  _196
REMARK   85  A    between atoms: _206  and  _208
REMARK   86  A    between atoms: _208  and  _209
REMARK   87  A    between atoms: _208  and  _211
REMARK   88  A    between atoms: _211  and  _212
REMARK   89  A    between atoms: _212  and  _213
REMARK   90  A    between atoms: _215  and  _217
REMARK   91  A    between atoms: _217  and  _218
REMARK   92  A    between atoms: _220  and  _222
REMARK   93  A    between atoms: _222  and  _223
REMARK   94  A    between atoms: _222  and  _225
REMARK   95  A    between atoms: _225  and  _226
REMARK   96  A    between atoms: _229  and  _231
REMARK   97  A    between atoms: _231  and  _232
REMARK   98  A    between atoms: _231  and  _234
REMARK   99  A    between atoms: _234  and  _235
REMARK  100  A    between atoms: _235  and  _236
REMARK  101  A    between atoms: _238  and  _240
REMARK  102  A    between atoms: _240  and  _241
REMARK  103  A    between atoms: _240  and  _243
REMARK  104  A    between atoms: _246  and  _248
REMARK  105  A    between atoms: _248  and  _249
REMARK  106  A    between atoms: _248  and  _251
REMARK  107  A    between atoms: _251  and  _252
REMARK  108  A    between atoms: _258  and  _260
REMARK  109  A    between atoms: _260  and  _261
REMARK  110  A    between atoms: _264  and  _266
REMARK  111  A    between atoms: _266  and  _267
REMARK  112  A    between atoms: _266  and  _269
REMARK  113  A    between atoms: _269  and  _270
REMARK  114  A    between atoms: _270  and  _271
REMARK  115  A    between atoms: _273  and  _275
REMARK  116  A    between atoms: _275  and  _276
REMARK  117  A    between atoms: _278  and  _280
REMARK  118  A    between atoms: _280  and  _281
REMARK  119  A    between atoms: _280  and  _283
REMARK  120  A    between atoms: _283  and  _284
REMARK  121  A    between atoms: _294  and  _296
REMARK  122  A    between atoms: _296  and  _297
REMARK  123  A    between atoms: _296  and  _299
REMARK  124  A    between atoms: _299  and  _300
REMARK  125  A    between atoms: _300  and  _301
REMARK  126  A    between atoms: _301  and  _302
REMARK  127  A    between atoms: _311  and  _313
REMARK  128  A    between atoms: _313  and  _314
REMARK  129  A    between atoms: _313  and  _316
REMARK  130  A    between atoms: _316  and  _317
REMARK  131  A    between atoms: _319  and  _321
REMARK  132  A    between atoms: _321  and  _322
REMARK  133  A    between atoms: _321  and  _324
REMARK  134  A    between atoms: _324  and  _325
REMARK  135  A    between atoms: _328  and  _330
REMARK  136  A    between atoms: _330  and  _331
REMARK  137  A    between atoms: _330  and  _333
REMARK  138  A    between atoms: _333  and  _334
REMARK  139  A    between atoms: _339  and  _340
REMARK  140  A    between atoms: _342  and  _344
REMARK  141  A    between atoms: _344  and  _345
REMARK  142  A    between atoms: _344  and  _347
REMARK  143  A    between atoms: _347  and  _348
REMARK  144  A    between atoms: _354  and  _356
REMARK  145  A    between atoms: _356  and  _357
REMARK  146  A    between atoms: _361  and  _362
REMARK  147  A    between atoms: _367  and  _369
REMARK  148  A    between atoms: _369  and  _370
REMARK  149  A    between atoms: _369  and  _372
REMARK  150  A    between atoms: _372  and  _373
REMARK  151  A    between atoms: _376  and  _378
REMARK  152  A    between atoms: _378  and  _379
REMARK  153  A    between atoms: _378  and  _381
REMARK  154  A    between atoms: _381  and  _382
REMARK  155  A    between atoms: _384  and  _386
REMARK  156  A    between atoms: _386  and  _387
REMARK  157  A    between atoms: _386  and  _389
REMARK  158  A    between atoms: _389  and  _390
REMARK  159  A    between atoms: _390  and  _391
REMARK  160  A    between atoms: _393  and  _395
REMARK  161  A    between atoms: _395  and  _396
REMARK  162  A    between atoms: _395  and  _398
REMARK  163  A    between atoms: _398  and  _399
REMARK  164  A    between atoms: _399  and  _400
REMARK  165  A    between atoms: _405  and  _407
REMARK  166  A    between atoms: _407  and  _408
REMARK  167  A    between atoms: _407  and  _410
REMARK  168  A    between atoms: _412  and  _414
REMARK  169  A    between atoms: _414  and  _415
REMARK  170  A    between atoms: _414  and  _417
REMARK  171  A    between atoms: _417  and  _418
REMARK  172  A    between atoms: _418  and  _419
REMARK  173  A    between atoms: _421  and  _423
REMARK  174  A    between atoms: _423  and  _424
REMARK  175  A    between atoms: _423  and  _426
REMARK  176  A    between atoms: _426  and  _427
REMARK  177  A    between atoms: _430  and  _432
REMARK  178  A    between atoms: _432  and  _433
REMARK  179  A    between atoms: _432  and  _435
REMARK  180  A    between atoms: _435  and  _436
REMARK  181  A    between atoms: _439  and  _441
REMARK  182  A    between atoms: _441  and  _442
REMARK  183  A    between atoms: _441  and  _444
REMARK  184  A    between atoms: _447  and  _449
REMARK  185  A    between atoms: _449  and  _450
REMARK  186  A    between atoms: _449  and  _452
REMARK  187  A    between atoms: _452  and  _453
REMARK  188  A    between atoms: _456  and  _458
REMARK  189  A    between atoms: _458  and  _459
REMARK  190  A    between atoms: _462  and  _464
REMARK  191  A    between atoms: _464  and  _465
REMARK  192  A    between atoms: _464  and  _467
REMARK  193  A    between atoms: _467  and  _468
REMARK  194  A    between atoms: _471  and  _473
REMARK  195  A    between atoms: _473  and  _474
REMARK  196  A    between atoms: _473  and  _476
REMARK  197  A    between atoms: _476  and  _477
REMARK  198  A    between atoms: _482  and  _484
REMARK  199  A    between atoms: _484  and  _485
REMARK  200  A    between atoms: _484  and  _487
REMARK  201  A    between atoms: _487  and  _488
REMARK  202  A    between atoms: _494  and  _496
REMARK  203  A    between atoms: _496  and  _497
REMARK  204  A    between atoms: _496  and  _499
REMARK  205  A    between atoms: _499  and  _500
REMARK  206  A    between atoms: _503  and  _505
REMARK  207  A    between atoms: _505  and  _506
REMARK  208  A    between atoms: _505  and  _508
REMARK  209  A    between atoms: _508  and  _509
REMARK  210  A    between atoms: _515  and  _517
REMARK  211  A    between atoms: _517  and  _518
REMARK  212  A    between atoms: _517  and  _520
REMARK  213  A    between atoms: _520  and  _521
REMARK  214  A    between atoms: _524  and  _526
REMARK  215  A    between atoms: _526  and  _527
REMARK  216  A    between atoms: _526  and  _529
REMARK  217  A    between atoms: _529  and  _530
REMARK  218  A    between atoms: _533  and  _535
REMARK  219  A    between atoms: _535  and  _536
REMARK  220  A    between atoms: _535  and  _538
REMARK  221  A    between atoms: _541  and  _543
REMARK  222  A    between atoms: _543  and  _544
REMARK  223  A    between atoms: _543  and  _546
REMARK  224  A    between atoms: _546  and  _547
REMARK  225  A    between atoms: _550  and  _552
REMARK  226  A    between atoms: _552  and  _553
REMARK  227  A    between atoms: _552  and  _555
REMARK  228  A    between atoms: _555  and  _556
REMARK  229  A    between atoms: _563  and  _564
REMARK  230  A    between atoms: _569  and  _571
REMARK  231  A    between atoms: _571  and  _572
REMARK  232  A    between atoms: _571  and  _574
REMARK  233  A    between atoms: _574  and  _575
REMARK  234  A    between atoms: _575  and  _576
REMARK  235  A    between atoms: _578  and  _580
REMARK  236  A    between atoms: _580  and  _581
REMARK  237  A    between atoms: _580  and  _583
REMARK  238  A    between atoms: _583  and  _584
REMARK  239  A    between atoms: _584  and  _585
REMARK  240  A    between atoms: _587  and  _589
REMARK  241  A    between atoms: _589  and  _590
REMARK  242  A    between atoms: _593  and  _595
REMARK  243  A    between atoms: _595  and  _596
REMARK  244  A    between atoms: _595  and  _598
REMARK  245  A    between atoms: _598  and  _599
REMARK  246  A    between atoms: _599  and  _600
REMARK  247  A    between atoms: _603  and  _605
REMARK  248  A    between atoms: _605  and  _606
REMARK  249  A    between atoms: _605  and  _608
REMARK  250  A    between atoms: _608  and  _609
REMARK  251  A    between atoms: _612  and  _614
REMARK  252  A    between atoms: _614  and  _615
REMARK  253  A    between atoms: _614  and  _617
REMARK  254  A    between atoms: _617  and  _618
REMARK  255  A    between atoms: _621  and  _623
REMARK  256  A    between atoms: _623  and  _624
REMARK  257  A    between atoms: _623  and  _626
REMARK  258  A    between atoms: _626  and  _627
REMARK  259  A    between atoms: _629  and  _631
REMARK  260  A    between atoms: _631  and  _632
REMARK  261  A    between atoms: _631  and  _634
REMARK  262  A    between atoms: _637  and  _639
REMARK  263  A    between atoms: _639  and  _640
REMARK  264  A    between atoms: _639  and  _642
REMARK  265  A    between atoms: _642  and  _643
REMARK  266  A    between atoms: _643  and  _644
REMARK  267  A    between atoms: _649  and  _651
REMARK  268  A    between atoms: _651  and  _652
REMARK  269  A    between atoms: _651  and  _654
REMARK  270  A    between atoms: _658  and  _659
REMARK  271  A    between atoms: _664  and  _666
REMARK  272  A    between atoms: _666  and  _667
REMARK  273  A    between atoms: _666  and  _669
REMARK  274  A    between atoms: _669  and  _670
REMARK  275  A    between atoms: _670  and  _671
REMARK  276  A    between atoms: _671  and  _672
REMARK  277  A    between atoms: _672  and  _673
REMARK  278  A    between atoms: _677  and  _679
REMARK  279  A    between atoms: _679  and  _680
REMARK  280  A    between atoms: _679  and  _682
REMARK  281  A    between atoms: _682  and  _683
REMARK  282  A    between atoms: _686  and  _688
REMARK  283  A    between atoms: _688  and  _689
REMARK  284  A    between atoms: _688  and  _691
REMARK                            x       y       z     vdW  Elec       q    Type
REMARK                         _______ _______ _______ _____ _____    ______ ____
ROOT
ATOM      1  C   ILE A   1      19.418  -2.568   7.804  0.00  0.00    +0.238 C 
ATOM      2  N   ALA A   2      19.569  -1.923   8.959  0.00  0.00    -0.298 N 
ATOM      3  H   ALA A   2      18.732  -1.559   9.458  0.00  0.00    +0.150 HD
ATOM      4  O   ILE A   1      20.367  -3.017   7.165  0.00  0.00    -0.274 OA
ENDROOT
BRANCH   2   5
ATOM      5  CA  ALA A   2      20.898  -1.721   9.532  0.00  0.00    +0.137 C 
ATOM      6  CB  ALA A   2      20.800  -0.908  10.827  0.00  0.00    +0.030 C 
BRANCH   5   7
ATOM      7  C   ALA A   2      21.583  -3.064   9.792  0.00  0.00    +0.227 C 
ATOM      8  O   ALA A   2      22.783  -3.224   9.544  0.00  0.00    -0.286 OA
ENDBRANCH   5   7
ENDBRANCH   2   5
BRANCH   1   9
ATOM      9  CA  ILE A   1      17.995  -2.731   7.290  0.00  0.00    +0.145 C 
BRANCH   9  10
ATOM     10  N   ILE A   1      17.152  -3.165   8.396  0.00  0.00    -0.238 NA
ATOM     11  H   ILE A   1      16.444  -2.508   8.781  0.00  0.00    +0.142 HD
ENDBRANCH   9  10
BRANCH   9  12
ATOM     12  CB  ILE A   1      17.528  -1.371   6.701  0.00  0.00    +0.025 C 
ATOM     13  CG2 ILE A   1      18.500  -0.895   5.627  0.00  0.00    +0.002 C 
BRANCH  12  14
ATOM     14  CG1 ILE A   1      16.121  -1.505   6.115  0.00  0.00    +0.002 C 
ATOM     15  CD1 ILE A   1      15.622  -0.231   5.464  0.00  0.00    +0.000 C 
ENDBRANCH  12  14
ENDBRANCH   9  12
ENDBRANCH   1   9
TORSDOF 6
REMARK  Name = ../refined-set-2016/3b68/3b68_pocket.pdb
REMARK  284 active torsions:
REMARK  status: ('A' for Active; 'I' for Inactive)
REMARK    1  A    between atoms: _1  and  _3
REMARK    2  A    between atoms: _3  and  _4
REMARK    3  A    between atoms: _3  and  _6
REMARK    4  A    between atoms: _9  and  _11
REMARK    5  A    between atoms: _11  and  _12
REMARK    6  A    between atoms: _15  and  _17
REMARK    7  A    between atoms: _17  and  _18
REMARK    8  A    between atoms: _17  and  _20
REMARK    9  A    between atoms: _20  and  _21
REMARK   10  A    between atoms: _24  and  _26
REMARK   11  A    between atoms: _26  and  _27
REMARK   12  A    between atoms: _26  and  _29
REMARK   13  A    between atoms: _29  and  _30
REMARK   14  A    between atoms: _33  and  _35
REMARK   15  A    between atoms: _35  and  _36
REMARK   16  A    between atoms: _35  and  _38
REMARK   17  A    between atoms: _38  and  _39
REMARK   18  A    between atoms: _41  and  _43
REMARK   19  A    between atoms: _43  and  _44
REMARK   20  A    between atoms: _43  and  _46
REMARK   21  A    between atoms: _46  and  _47
REMARK   22  A    between atoms: _49  and  _51
REMARK   23  A    between atoms: _51  and  _52
REMARK   24  A    between atoms: _51  and  _54
REMARK   25  A    between atoms: _54  and  _55
REMARK   26  A    between atoms: _58  and  _60
REMARK   27  A    between atoms: _60  and  _61
REMARK   28  A    between atoms: _60  and  _63
REMARK   29  A    between atoms: _63  and  _64
REMARK   30  A    between atoms: _69  and  _71
REMARK   31  A    between atoms: _71  and  _72
REMARK   32  A    between atoms: _71  and  _74
REMARK   33  A    between atoms: _74  and  _75
REMARK   34  A    between atoms: _75  and  _76
REMARK   35  A    between atoms: _79  and  _81
REMARK   36  A    between atoms: _81  and  _82
REMARK   37  A    between atoms: _81  and  _84
REMARK   38  A    between atoms: _84  and  _85
REMARK   39  A    between atoms: _88  and  _90
REMARK   40  A    between atoms: _90  and  _91
REMARK   41  A    between atoms: _93  and  _95
REMARK   42  A    between atoms: _95  and  _96
REMARK   43  A    between atoms: _95  and  _98
REMARK   44  A    between atoms: _98  and  _99
REMARK   45  A    between atoms: _99  and  _100
REMARK   46  A    between atoms: _103  and  _105
REMARK   47  A    between atoms: _105  and  _106
REMARK   48  A    between atoms: _105  and  _108
REMARK   49  A    between atoms: _108  and  _109
REMARK   50  A    between atoms: _109  and  _110
REMARK   51  A    between atoms: _110  and  _111
REMARK   52  A    between atoms: _120  and  _122
REMARK   53  A    between atoms: _122  and  _123
REMARK   54  A    between atoms: _122  and  _125
REMARK   55  A    between atoms: _125  and  _126
REMARK   56  A    between atoms: _126  and  _127
REMARK   57  A    between atoms: _132  and  _134
REMARK   58  A    between atoms: _134  and  _135
REMARK   59  A    between atoms: _134  and  _137
REMARK   60  A    between atoms: _137  and  _138
REMARK   61  A    between atoms: _141  and  _143
REMARK   62  A    between atoms: _143  and  _144
REMARK   63  A    between atoms: _147  and  _149
REMARK   64  A    between atoms: _149  and  _150
REMARK   65  A    between atoms: _149  and  _152
REMARK   66  A    between atoms: _152  and  _153
REMARK   67  A    between atoms: _156  and  _158
REMARK   68  A    between atoms: _158  and  _159
REMARK   69  A    between atoms: _158  and  _161
REMARK   70  A    between atoms: _161  and  _162
REMARK   71  A    between atoms: _162  and  _163
REMARK   72  A    between atoms: _168  and  _170
REMARK   73  A    between atoms: _170  and  _171
REMARK   74  A    between atoms: _170  and  _173
REMARK   75  A    between atoms: _173  and  _174
REMARK   76  A    between atoms: _179  and  _180
REMARK   77  A    between atoms: _182  and  _184
REMARK   78  A    between atoms: _184  and  _185
REMARK   79  A    between atoms: _184  and  _187
REMARK   80  A    between atoms: _187  and  _188
REMARK   81  A    between atoms: _190  and  _192
REMARK   82  A    between atoms: _192  and  _193
REMARK   83  A    between atoms: _192  and  _195
REMARK   84  A    between atoms: _195  and  _196
REMARK   85  A    between atoms: _206  and  _208
REMARK   86  A    between atoms: _208  and  _209
REMARK   87  A    between atoms: _208  and  _211
REMARK   88  A    between atoms: _211  and  _212
REMARK   89  A    between atoms: _212  and  _213
REMARK   90  A    between atoms: _215  and  _217
REMARK   91  A    between atoms: _217  and  _218
REMARK   92  A    between atoms: _220  and  _222
REMARK   93  A    between atoms: _222  and  _223
REMARK   94  A    between atoms: _222  and  _225
REMARK   95  A    between atoms: _225  and  _226
REMARK   96  A    between atoms: _229  and  _231
REMARK   97  A    between atoms: _231  and  _232
REMARK   98  A    between atoms: _231  and  _234
REMARK   99  A    between atoms: _234  and  _235
REMARK  100  A    between atoms: _235  and  _236
REMARK  101  A    between atoms: _238  and  _240
REMARK  102  A    between atoms: _240  and  _241
REMARK  103  A    between atoms: _240  and  _243
REMARK  104  A    between atoms: _246  and  _248
REMARK  105  A    between atoms: _248  and  _249
REMARK  106  A    between atoms: _248  and  _251
REMARK  107  A    between atoms: _251  and  _252
REMARK  108  A    between atoms: _258  and  _260
REMARK  109  A    between atoms: _260  and  _261
REMARK  110  A    between atoms: _264  and  _266
REMARK  111  A    between atoms: _266  and  _267
REMARK  112  A    between atoms: _266  and  _269
REMARK  113  A    between atoms: _269  and  _270
REMARK  114  A    between atoms: _270  and  _271
REMARK  115  A    between atoms: _273  and  _275
REMARK  116  A    between atoms: _275  and  _276
REMARK  117  A    between atoms: _278  and  _280
REMARK  118  A    between atoms: _280  and  _281
REMARK  119  A    between atoms: _280  and  _283
REMARK  120  A    between atoms: _283  and  _284
REMARK  121  A    between atoms: _294  and  _296
REMARK  122  A    between atoms: _296  and  _297
REMARK  123  A    between atoms: _296  and  _299
REMARK  124  A    between atoms: _299  and  _300
REMARK  125  A    between atoms: _300  and  _301
REMARK  126  A    between atoms: _301  and  _302
REMARK  127  A    between atoms: _311  and  _313
REMARK  128  A    between atoms: _313  and  _314
REMARK  129  A    between atoms: _313  and  _316
REMARK  130  A    between atoms: _316  and  _317
REMARK  131  A    between atoms: _319  and  _321
REMARK  132  A    between atoms: _321  and  _322
REMARK  133  A    between atoms: _321  and  _324
REMARK  134  A    between atoms: _324  and  _325
REMARK  135  A    between atoms: _328  and  _330
REMARK  136  A    between atoms: _330  and  _331
REMARK  137  A    between atoms: _330  and  _333
REMARK  138  A    between atoms: _333  and  _334
REMARK  139  A    between atoms: _339  and  _340
REMARK  140  A    between atoms: _342  and  _344
REMARK  141  A    between atoms: _344  and  _345
REMARK  142  A    between atoms: _344  and  _347
REMARK  143  A    between atoms: _347  and  _348
REMARK  144  A    between atoms: _354  and  _356
REMARK  145  A    between atoms: _356  and  _357
REMARK  146  A    between atoms: _361  and  _362
REMARK  147  A    between atoms: _367  and  _369
REMARK  148  A    between atoms: _369  and  _370
REMARK  149  A    between atoms: _369  and  _372
REMARK  150  A    between atoms: _372  and  _373
REMARK  151  A    between atoms: _376  and  _378
REMARK  152  A    between atoms: _378  and  _379
REMARK  153  A    between atoms: _378  and  _381
REMARK  154  A    between atoms: _381  and  _382
REMARK  155  A    between atoms: _384  and  _386
REMARK  156  A    between atoms: _386  and  _387
REMARK  157  A    between atoms: _386  and  _389
REMARK  158  A    between atoms: _389  and  _390
REMARK  159  A    between atoms: _390  and  _391
REMARK  160  A    between atoms: _393  and  _395
REMARK  161  A    between atoms: _395  and  _396
REMARK  162  A    between atoms: _395  and  _398
REMARK  163  A    between atoms: _398  and  _399
REMARK  164  A    between atoms: _399  and  _400
REMARK  165  A    between atoms: _405  and  _407
REMARK  166  A    between atoms: _407  and  _408
REMARK  167  A    between atoms: _407  and  _410
REMARK  168  A    between atoms: _412  and  _414
REMARK  169  A    between atoms: _414  and  _415
REMARK  170  A    between atoms: _414  and  _417
REMARK  171  A    between atoms: _417  and  _418
REMARK  172  A    between atoms: _418  and  _419
REMARK  173  A    between atoms: _421  and  _423
REMARK  174  A    between atoms: _423  and  _424
REMARK  175  A    between atoms: _423  and  _426
REMARK  176  A    between atoms: _426  and  _427
REMARK  177  A    between atoms: _430  and  _432
REMARK  178  A    between atoms: _432  and  _433
REMARK  179  A    between atoms: _432  and  _435
REMARK  180  A    between atoms: _435  and  _436
REMARK  181  A    between atoms: _439  and  _441
REMARK  182  A    between atoms: _441  and  _442
REMARK  183  A    between atoms: _441  and  _444
REMARK  184  A    between atoms: _447  and  _449
REMARK  185  A    between atoms: _449  and  _450
REMARK  186  A    between atoms: _449  and  _452
REMARK  187  A    between atoms: _452  and  _453
REMARK  188  A    between atoms: _456  and  _458
REMARK  189  A    between atoms: _458  and  _459
REMARK  190  A    between atoms: _462  and  _464
REMARK  191  A    between atoms: _464  and  _465
REMARK  192  A    between atoms: _464  and  _467
REMARK  193  A    between atoms: _467  and  _468
REMARK  194  A    between atoms: _471  and  _473
REMARK  195  A    between atoms: _473  and  _474
REMARK  196  A    between atoms: _473  and  _476
REMARK  197  A    between atoms: _476  and  _477
REMARK  198  A    between atoms: _482  and  _484
REMARK  199  A    between atoms: _484  and  _485
REMARK  200  A    between atoms: _484  and  _487
REMARK  201  A    between atoms: _487  and  _488
REMARK  202  A    between atoms: _494  and  _496
REMARK  203  A    between atoms: _496  and  _497
REMARK  204  A    between atoms: _496  and  _499
REMARK  205  A    between atoms: _499  and  _500
REMARK  206  A    between atoms: _503  and  _505
REMARK  207  A    between atoms: _505  and  _506
REMARK  208  A    between atoms: _505  and  _508
REMARK  209  A    between atoms: _508  and  _509
REMARK  210  A    between atoms: _515  and  _517
REMARK  211  A    between atoms: _517  and  _518
REMARK  212  A    between atoms: _517  and  _520
REMARK  213  A    between atoms: _520  and  _521
REMARK  214  A    between atoms: _524  and  _526
REMARK  215  A    between atoms: _526  and  _527
REMARK  216  A    between atoms: _526  and  _529
REMARK  217  A    between atoms: _529  and  _530
REMARK  218  A    between atoms: _533  and  _535
REMARK  219  A    between atoms: _535  and  _536
REMARK  220  A    between atoms: _535  and  _538
REMARK  221  A    between atoms: _541  and  _543
REMARK  222  A    between atoms: _543  and  _544
REMARK  223  A    between atoms: _543  and  _546
REMARK  224  A    between atoms: _546  and  _547
REMARK  225  A    between atoms: _550  and  _552
REMARK  226  A    between atoms: _552  and  _553
REMARK  227  A    between atoms: _552  and  _555
REMARK  228  A    between atoms: _555  and  _556
REMARK  229  A    between atoms: _563  and  _564
REMARK  230  A    between atoms: _569  and  _571
REMARK  231  A    between atoms: _571  and  _572
REMARK  232  A    between atoms: _571  and  _574
REMARK  233  A    between atoms: _574  and  _575
REMARK  234  A    between atoms: _575  and  _576
REMARK  235  A    between atoms: _578  and  _580
REMARK  236  A    between atoms: _580  and  _581
REMARK  237  A    between atoms: _580  and  _583
REMARK  238  A    between atoms: _583  and  _584
REMARK  239  A    between atoms: _584  and  _585
REMARK  240  A    between atoms: _587  and  _589
REMARK  241  A    between atoms: _589  and  _590
REMARK  242  A    between atoms: _593  and  _595
REMARK  243  A    between atoms: _595  and  _596
REMARK  244  A    between atoms: _595  and  _598
REMARK  245  A    between atoms: _598  and  _599
REMARK  246  A    between atoms: _599  and  _600
REMARK  247  A    between atoms: _603  and  _605
REMARK  248  A    between atoms: _605  and  _606
REMARK  249  A    between atoms: _605  and  _608
REMARK  250  A    between atoms: _608  and  _609
REMARK  251  A    between atoms: _612  and  _614
REMARK  252  A    between atoms: _614  and  _615
REMARK  253  A    between atoms: _614  and  _617
REMARK  254  A    between atoms: _617  and  _618
REMARK  255  A    between atoms: _621  and  _623
REMARK  256  A    between atoms: _623  and  _624
REMARK  257  A    between atoms: _623  and  _626
REMARK  258  A    between atoms: _626  and  _627
REMARK  259  A    between atoms: _629  and  _631
REMARK  260  A    between atoms: _631  and  _632
REMARK  261  A    between atoms: _631  and  _634
REMARK  262  A    between atoms: _637  and  _639
REMARK  263  A    between atoms: _639  and  _640
REMARK  264  A    between atoms: _639  and  _642
REMARK  265  A    between atoms: _642  and  _643
REMARK  266  A    between atoms: _643  and  _644
REMARK  267  A    between atoms: _649  and  _651
REMARK  268  A    between atoms: _651  and  _652
REMARK  269  A    between atoms: _651  and  _654
REMARK  270  A    between atoms: _658  and  _659
REMARK  271  A    between atoms: _664  and  _666
REMARK  272  A    between atoms: _666  and  _667
REMARK  273  A    between atoms: _666  and  _669
REMARK  274  A    between atoms: _669  and  _670
REMARK  275  A    between atoms: _670  and  _671
REMARK  276  A    between atoms: _671  and  _672
REMARK  277  A    between atoms: _672  and  _673
REMARK  278  A    between atoms: _677  and  _679
REMARK  279  A    between atoms: _679  and  _680
REMARK  280  A    between atoms: _679  and  _682
REMARK  281  A    between atoms: _682  and  _683
REMARK  282  A    between atoms: _686  and  _688
REMARK  283  A    between atoms: _688  and  _689
REMARK  284  A    between atoms: _688  and  _691
REMARK                            x       y       z     vdW  Elec       q    Type
REMARK                         _______ _______ _______ _____ _____    ______ ____
ROOT
ATOM      1  C   LEU A   1      25.168  -4.070   7.010  0.00  0.00    +0.238 C 
ATOM      2  N   HIS A   2      24.936  -4.233   8.313  0.00  0.00    -0.298 N 
ATOM      3  H   HIS A   2      23.970  -4.105   8.676  0.00  0.00    +0.150 HD
ATOM      4  O   LEU A   1      26.293  -4.179   6.506  0.00  0.00    -0.274 OA
ENDROOT
BRANCH   1   5
ATOM      5  CA  LEU A   1      23.960  -3.734   6.137  0.00  0.00    +0.145 C 
BRANCH   5   6
ATOM      6  N   LEU A   1      22.809  -4.492   6.593  0.00  0.00    -0.238 NA
ATOM      7  H   LEU A   1      22.022  -4.003   7.065  0.00  0.00    +0.142 HD
ENDBRANCH   5   6
BRANCH   5   8
ATOM      8  CB  LEU A   1      23.651  -2.235   6.171  0.00  0.00    +0.026 C 
BRANCH   8   9
ATOM      9  CG  LEU A   1      22.688  -1.706   5.101  0.00  0.00    +0.002 C 
ATOM     10  CD2 LEU A   1      22.395  -0.251   5.358  0.00  0.00    +0.000 C 
ATOM     11  CD1 LEU A   1      23.294  -1.871   3.717  0.00  0.00    +0.000 C 
ENDBRANCH   8   9
ENDBRANCH   5   8
ENDBRANCH   1   5
BRANCH   2  12
ATOM     12  CA  HIS A   2      26.006  -4.587   9.245  0.00  0.00    +0.143 C 
BRANCH  12  13
ATOM     13  C   HIS A   2      26.578  -5.940   8.849  0.00  0.00    +0.227 C 
ATOM     14  O   HIS A   2      27.793  -6.115   8.801  0.00  0.00    -0.286 OA
ENDBRANCH  12  13
BRANCH  12  15
ATOM     15  CB  HIS A   2      25.486  -4.683  10.691  0.00  0.00    +0.075 C 
BRANCH  15  16
ATOM     16  CG  HIS A   2      25.410  -3.368  11.407  0.00  0.00    +0.082 A 
ATOM     17  ND1 HIS A   2      24.382  -3.053  12.269  0.00  0.00    -0.227 NA
ATOM     18  CE1 HIS A   2      24.581  -1.847  12.771  0.00  0.00    +0.199 A 
ATOM     19  NE2 HIS A   2      25.705  -1.368  12.268  0.00  0.00    -0.221 NA
ATOM     20  CD2 HIS A   2      26.244  -2.299  11.412  0.00  0.00    +0.115 A 
ENDBRANCH  15  16
ENDBRANCH  12  15
ENDBRANCH   2  12
TORSDOF 8
REMARK  Name = ../refined-set-2016/3b68/3b68_pocket.pdb
REMARK  284 active torsions:
REMARK  status: ('A' for Active; 'I' for Inactive)
REMARK    1  A    between atoms: _1  and  _3
REMARK    2  A    between atoms: _3  and  _4
REMARK    3  A    between atoms: _3  and  _6
REMARK    4  A    between atoms: _9  and  _11
REMARK    5  A    between atoms: _11  and  _12
REMARK    6  A    between atoms: _15  and  _17
REMARK    7  A    between atoms: _17  and  _18
REMARK    8  A    between atoms: _17  and  _20
REMARK    9  A    between atoms: _20  and  _21
REMARK   10  A    between atoms: _24  and  _26
REMARK   11  A    between atoms: _26  and  _27
REMARK   12  A    between atoms: _26  and  _29
REMARK   13  A    between atoms: _29  and  _30
REMARK   14  A    between atoms: _33  and  _35
REMARK   15  A    between atoms: _35  and  _36
REMARK   16  A    between atoms: _35  and  _38
REMARK   17  A    between atoms: _38  and  _39
REMARK   18  A    between atoms: _41  and  _43
REMARK   19  A    between atoms: _43  and  _44
REMARK   20  A    between atoms: _43  and  _46
REMARK   21  A    between atoms: _46  and  _47
REMARK   22  A    between atoms: _49  and  _51
REMARK   23  A    between atoms: _51  and  _52
REMARK   24  A    between atoms: _51  and  _54
REMARK   25  A    between atoms: _54  and  _55
REMARK   26  A    between atoms: _58  and  _60
REMARK   27  A    between atoms: _60  and  _61
REMARK   28  A    between atoms: _60  and  _63
REMARK   29  A    between atoms: _63  and  _64
REMARK   30  A    between atoms: _69  and  _71
REMARK   31  A    between atoms: _71  and  _72
REMARK   32  A    between atoms: _71  and  _74
REMARK   33  A    between atoms: _74  and  _75
REMARK   34  A    between atoms: _75  and  _76
REMARK   35  A    between atoms: _79  and  _81
REMARK   36  A    between atoms: _81  and  _82
REMARK   37  A    between atoms: _81  and  _84
REMARK   38  A    between atoms: _84  and  _85
REMARK   39  A    between atoms: _88  and  _90
REMARK   40  A    between atoms: _90  and  _91
REMARK   41  A    between atoms: _93  and  _95
REMARK   42  A    between atoms: _95  and  _96
REMARK   43  A    between atoms: _95  and  _98
REMARK   44  A    between atoms: _98  and  _99
REMARK   45  A    between atoms: _99  and  _100
REMARK   46  A    between atoms: _103  and  _105
REMARK   47  A    between atoms: _105  and  _106
REMARK   48  A    between atoms: _105  and  _108
REMARK   49  A    between atoms: _108  and  _109
REMARK   50  A    between atoms: _109  and  _110
REMARK   51  A    between atoms: _110  and  _111
REMARK   52  A    between atoms: _120  and  _122
REMARK   53  A    between atoms: _122  and  _123
REMARK   54  A    between atoms: _122  and  _125
REMARK   55  A    between atoms: _125  and  _126
REMARK   56  A    between atoms: _126  and  _127
REMARK   57  A    between atoms: _132  and  _134
REMARK   58  A    between atoms: _134  and  _135
REMARK   59  A    between atoms: _134  and  _137
REMARK   60  A    between atoms: _137  and  _138
REMARK   61  A    between atoms: _141  and  _143
REMARK   62  A    between atoms: _143  and  _144
REMARK   63  A    between atoms: _147  and  _149
REMARK   64  A    between atoms: _149  and  _150
REMARK   65  A    between atoms: _149  and  _152
REMARK   66  A    between atoms: _152  and  _153
REMARK   67  A    between atoms: _156  and  _158
REMARK   68  A    between atoms: _158  and  _159
REMARK   69  A    between atoms: _158  and  _161
REMARK   70  A    between atoms: _161  and  _162
REMARK   71  A    between atoms: _162  and  _163
REMARK   72  A    between atoms: _168  and  _170
REMARK   73  A    between atoms: _170  and  _171
REMARK   74  A    between atoms: _170  and  _173
REMARK   75  A    between atoms: _173  and  _174
REMARK   76  A    between atoms: _179  and  _180
REMARK   77  A    between atoms: _182  and  _184
REMARK   78  A    between atoms: _184  and  _185
REMARK   79  A    between atoms: _184  and  _187
REMARK   80  A    between atoms: _187  and  _188
REMARK   81  A    between atoms: _190  and  _192
REMARK   82  A    between atoms: _192  and  _193
REMARK   83  A    between atoms: _192  and  _195
REMARK   84  A    between atoms: _195  and  _196
REMARK   85  A    between atoms: _206  and  _208
REMARK   86  A    between atoms: _208  and  _209
REMARK   87  A    between atoms: _208  and  _211
REMARK   88  A    between atoms: _211  and  _212
REMARK   89  A    between atoms: _212  and  _213
REMARK   90  A    between atoms: _215  and  _217
REMARK   91  A    between atoms: _217  and  _218
REMARK   92  A    between atoms: _220  and  _222
REMARK   93  A    between atoms: _222  and  _223
REMARK   94  A    between atoms: _222  and  _225
REMARK   95  A    between atoms: _225  and  _226
REMARK   96  A    between atoms: _229  and  _231
REMARK   97  A    between atoms: _231  and  _232
REMARK   98  A    between atoms: _231  and  _234
REMARK   99  A    between atoms: _234  and  _235
REMARK  100  A    between atoms: _235  and  _236
REMARK  101  A    between atoms: _238  and  _240
REMARK  102  A    between atoms: _240  and  _241
REMARK  103  A    between atoms: _240  and  _243
REMARK  104  A    between atoms: _246  and  _248
REMARK  105  A    between atoms: _248  and  _249
REMARK  106  A    between atoms: _248  and  _251
REMARK  107  A    between atoms: _251  and  _252
REMARK  108  A    between atoms: _258  and  _260
REMARK  109  A    between atoms: _260  and  _261
REMARK  110  A    between atoms: _264  and  _266
REMARK  111  A    between atoms: _266  and  _267
REMARK  112  A    between atoms: _266  and  _269
REMARK  113  A    between atoms: _269  and  _270
REMARK  114  A    between atoms: _270  and  _271
REMARK  115  A    between atoms: _273  and  _275
REMARK  116  A    between atoms: _275  and  _276
REMARK  117  A    between atoms: _278  and  _280
REMARK  118  A    between atoms: _280  and  _281
REMARK  119  A    between atoms: _280  and  _283
REMARK  120  A    between atoms: _283  and  _284
REMARK  121  A    between atoms: _294  and  _296
REMARK  122  A    between atoms: _296  and  _297
REMARK  123  A    between atoms: _296  and  _299
REMARK  124  A    between atoms: _299  and  _300
REMARK  125  A    between atoms: _300  and  _301
REMARK  126  A    between atoms: _301  and  _302
REMARK  127  A    between atoms: _311  and  _313
REMARK  128  A    between atoms: _313  and  _314
REMARK  129  A    between atoms: _313  and  _316
REMARK  130  A    between atoms: _316  and  _317
REMARK  131  A    between atoms: _319  and  _321
REMARK  132  A    between atoms: _321  and  _322
REMARK  133  A    between atoms: _321  and  _324
REMARK  134  A    between atoms: _324  and  _325
REMARK  135  A    between atoms: _328  and  _330
REMARK  136  A    between atoms: _330  and  _331
REMARK  137  A    between atoms: _330  and  _333
REMARK  138  A    between atoms: _333  and  _334
REMARK  139  A    between atoms: _339  and  _340
REMARK  140  A    between atoms: _342  and  _344
REMARK  141  A    between atoms: _344  and  _345
REMARK  142  A    between atoms: _344  and  _347
REMARK  143  A    between atoms: _347  and  _348
REMARK  144  A    between atoms: _354  and  _356
REMARK  145  A    between atoms: _356  and  _357
REMARK  146  A    between atoms: _361  and  _362
REMARK  147  A    between atoms: _367  and  _369
REMARK  148  A    between atoms: _369  and  _370
REMARK  149  A    between atoms: _369  and  _372
REMARK  150  A    between atoms: _372  and  _373
REMARK  151  A    between atoms: _376  and  _378
REMARK  152  A    between atoms: _378  and  _379
REMARK  153  A    between atoms: _378  and  _381
REMARK  154  A    between atoms: _381  and  _382
REMARK  155  A    between atoms: _384  and  _386
REMARK  156  A    between atoms: _386  and  _387
REMARK  157  A    between atoms: _386  and  _389
REMARK  158  A    between atoms: _389  and  _390
REMARK  159  A    between atoms: _390  and  _391
REMARK  160  A    between atoms: _393  and  _395
REMARK  161  A    between atoms: _395  and  _396
REMARK  162  A    between atoms: _395  and  _398
REMARK  163  A    between atoms: _398  and  _399
REMARK  164  A    between atoms: _399  and  _400
REMARK  165  A    between atoms: _405  and  _407
REMARK  166  A    between atoms: _407  and  _408
REMARK  167  A    between atoms: _407  and  _410
REMARK  168  A    between atoms: _412  and  _414
REMARK  169  A    between atoms: _414  and  _415
REMARK  170  A    between atoms: _414  and  _417
REMARK  171  A    between atoms: _417  and  _418
REMARK  172  A    between atoms: _418  and  _419
REMARK  173  A    between atoms: _421  and  _423
REMARK  174  A    between atoms: _423  and  _424
REMARK  175  A    between atoms: _423  and  _426
REMARK  176  A    between atoms: _426  and  _427
REMARK  177  A    between atoms: _430  and  _432
REMARK  178  A    between atoms: _432  and  _433
REMARK  179  A    between atoms: _432  and  _435
REMARK  180  A    between atoms: _435  and  _436
REMARK  181  A    between atoms: _439  and  _441
REMARK  182  A    between atoms: _441  and  _442
REMARK  183  A    between atoms: _441  and  _444
REMARK  184  A    between atoms: _447  and  _449
REMARK  185  A    between atoms: _449  and  _450
REMARK  186  A    between atoms: _449  and  _452
REMARK  187  A    between atoms: _452  and  _453
REMARK  188  A    between atoms: _456  and  _458
REMARK  189  A    between atoms: _458  and  _459
REMARK  190  A    between atoms: _462  and  _464
REMARK  191  A    between atoms: _464  and  _465
REMARK  192  A    between atoms: _464  and  _467
REMARK  193  A    between atoms: _467  and  _468
REMARK  194  A    between atoms: _471  and  _473
REMARK  195  A    between atoms: _473  and  _474
REMARK  196  A    between atoms: _473  and  _476
REMARK  197  A    between atoms: _476  and  _477
REMARK  198  A    between atoms: _482  and  _484
REMARK  199  A    between atoms: _484  and  _485
REMARK  200  A    between atoms: _484  and  _487
REMARK  201  A    between atoms: _487  and  _488
REMARK  202  A    between atoms: _494  and  _496
REMARK  203  A    between atoms: _496  and  _497
REMARK  204  A    between atoms: _496  and  _499
REMARK  205  A    between atoms: _499  and  _500
REMARK  206  A    between atoms: _503  and  _505
REMARK  207  A    between atoms: _505  and  _506
REMARK  208  A    between atoms: _505  and  _508
REMARK  209  A    between atoms: _508  and  _509
REMARK  210  A    between atoms: _515  and  _517
REMARK  211  A    between atoms: _517  and  _518
REMARK  212  A    between atoms: _517  and  _520
REMARK  213  A    between atoms: _520  and  _521
REMARK  214  A    between atoms: _524  and  _526
REMARK  215  A    between atoms: _526  and  _527
REMARK  216  A    between atoms: _526  and  _529
REMARK  217  A    between atoms: _529  and  _530
REMARK  218  A    between atoms: _533  and  _535
REMARK  219  A    between atoms: _535  and  _536
REMARK  220  A    between atoms: _535  and  _538
REMARK  221  A    between atoms: _541  and  _543
REMARK  222  A    between atoms: _543  and  _544
REMARK  223  A    between atoms: _543  and  _546
REMARK  224  A    between atoms: _546  and  _547
REMARK  225  A    between atoms: _550  and  _552
REMARK  226  A    between atoms: _552  and  _553
REMARK  227  A    between atoms: _552  and  _555
REMARK  228  A    between atoms: _555  and  _556
REMARK  229  A    between atoms: _563  and  _564
REMARK  230  A    between atoms: _569  and  _571
REMARK  231  A    between atoms: _571  and  _572
REMARK  232  A    between atoms: _571  and  _574
REMARK  233  A    between atoms: _574  and  _575
REMARK  234  A    between atoms: _575  and  _576
REMARK  235  A    between atoms: _578  and  _580
REMARK  236  A    between atoms: _580  and  _581
REMARK  237  A    between atoms: _580  and  _583
REMARK  238  A    between atoms: _583  and  _584
REMARK  239  A    between atoms: _584  and  _585
REMARK  240  A    between atoms: _587  and  _589
REMARK  241  A    between atoms: _589  and  _590
REMARK  242  A    between atoms: _593  and  _595
REMARK  243  A    between atoms: _595  and  _596
REMARK  244  A    between atoms: _595  and  _598
REMARK  245  A    between atoms: _598  and  _599
REMARK  246  A    between atoms: _599  and  _600
REMARK  247  A    between atoms: _603  and  _605
REMARK  248  A    between atoms: _605  and  _606
REMARK  249  A    between atoms: _605  and  _608
REMARK  250  A    between atoms: _608  and  _609
REMARK  251  A    between atoms: _612  and  _614
REMARK  252  A    between atoms: _614  and  _615
REMARK  253  A    between atoms: _614  and  _617
REMARK  254  A    between atoms: _617  and  _618
REMARK  255  A    between atoms: _621  and  _623
REMARK  256  A    between atoms: _623  and  _624
REMARK  257  A    between atoms: _623  and  _626
REMARK  258  A    between atoms: _626  and  _627
REMARK  259  A    between atoms: _629  and  _631
REMARK  260  A    between atoms: _631  and  _632
REMARK  261  A    between atoms: _631  and  _634
REMARK  262  A    between atoms: _637  and  _639
REMARK  263  A    between atoms: _639  and  _640
REMARK  264  A    between atoms: _639  and  _642
REMARK  265  A    between atoms: _642  and  _643
REMARK  266  A    between atoms: _643  and  _644
REMARK  267  A    between atoms: _649  and  _651
REMARK  268  A    between atoms: _651  and  _652
REMARK  269  A    between atoms: _651  and  _654
REMARK  270  A    between atoms: _658  and  _659
REMARK  271  A    between atoms: _664  and  _666
REMARK  272  A    between atoms: _666  and  _667
REMARK  273  A    between atoms: _666  and  _669
REMARK  274  A    between atoms: _669  and  _670
REMARK  275  A    between atoms: _670  and  _671
REMARK  276  A    between atoms: _671  and  _672
REMARK  277  A    between atoms: _672  and  _673
REMARK  278  A    between atoms: _677  and  _679
REMARK  279  A    between atoms: _679  and  _680
REMARK  280  A    between atoms: _679  and  _682
REMARK  281  A    between atoms: _682  and  _683
REMARK  282  A    between atoms: _686  and  _688
REMARK  283  A    between atoms: _688  and  _689
REMARK  284  A    between atoms: _688  and  _691
REMARK                            x       y       z     vdW  Elec       q    Type
REMARK                         _______ _______ _______ _____ _____    ______ ____
ROOT
ATOM      1  CA  THR A   2      29.856  -4.930   5.900  0.00  0.00    +0.176 C 
ENDROOT
BRANCH   1   3
ATOM      2  C   PHE A   1      28.528  -6.670   4.838  0.00  0.00    +0.239 C 
ATOM      3  N   THR A   2      28.590  -5.610   5.636  0.00  0.00    -0.295 N 
ATOM      4  H   THR A   2      27.719  -5.257   6.082  0.00  0.00    +0.150 HD
ATOM      5  O   PHE A   1      29.521  -7.149   4.292  0.00  0.00    -0.274 OA
BRANCH   2   6
ATOM      6  CA  PHE A   1      27.144  -7.291   4.637  0.00  0.00    +0.149 C 
BRANCH   6   7
ATOM      7  N   PHE A   1      26.452  -7.480   5.912  0.00  0.00    -0.238 NA
ATOM      8  H   PHE A   1      25.513  -7.049   6.035  0.00  0.00    +0.142 HD
ENDBRANCH   6   7
BRANCH   6   9
ATOM      9  CB  PHE A   1      26.291  -6.403   3.725  0.00  0.00    +0.053 C 
BRANCH   9  10
ATOM     10  CG  PHE A   1      27.018  -5.891   2.509  0.00  0.00    -0.020 A 
ATOM     11  CD2 PHE A   1      27.688  -4.666   2.545  0.00  0.00    -0.004 A 
ATOM     12  CE2 PHE A   1      28.388  -4.203   1.437  0.00  0.00    -0.000 A 
ATOM     13  CZ  PHE A   1      28.424  -4.966   0.270  0.00  0.00    -0.000 A 
ATOM     14  CE1 PHE A   1      27.756  -6.193   0.219  0.00  0.00    -0.000 A 
ATOM     15  CD1 PHE A   1      27.059  -6.646   1.335  0.00  0.00    -0.004 A 
ENDBRANCH   9  10
ENDBRANCH   6   9
ENDBRANCH   2   6
ENDBRANCH   1   3
BRANCH   1  16
ATOM     16  C   THR A   2      30.847  -5.860   6.594  0.00  0.00    +0.243 C 
ATOM     17  N   PHE A   3      30.349  -6.639   7.551  0.00  0.00    -0.298 N 
ATOM     18  H   PHE A   3      29.338  -6.577   7.787  0.00  0.00    +0.150 HD
ATOM     19  O   THR A   2      32.047  -5.858   6.285  0.00  0.00    -0.273 OA
BRANCH  17  20
ATOM     20  CA  PHE A   3      31.197  -7.577   8.272  0.00  0.00    +0.141 C 
BRANCH  20  21
ATOM     21  C   PHE A   3      31.808  -8.600   7.319  0.00  0.00    +0.227 C 
ATOM     22  O   PHE A   3      33.022  -8.805   7.318  0.00  0.00    -0.286 OA
ENDBRANCH  20  21
BRANCH  20  23
ATOM     23  CB  PHE A   3      30.409  -8.322   9.354  0.00  0.00    +0.054 C 
BRANCH  23  24
ATOM     24  CG  PHE A   3      31.220  -9.379  10.061  0.00  0.00    -0.020 A 
ATOM     25  CD2 PHE A   3      32.190  -9.020  10.996  0.00  0.00    -0.004 A 
ATOM     26  CE2 PHE A   3      32.975  -9.995  11.628  0.00  0.00    -0.000 A 
ATOM     27  CZ  PHE A   3      32.785 -11.347  11.323  0.00  0.00    -0.000 A 
ATOM     28  CE1 PHE A   3      31.816 -11.715  10.388  0.00  0.00    -0.000 A 
ATOM     29  CD1 PHE A   3      31.041 -10.729   9.765  0.00  0.00    -0.004 A 
ENDBRANCH  23  24
ENDBRANCH  20  23
ENDBRANCH  17  20
ENDBRANCH   1  16
BRANCH   1  30
ATOM     30  CB  THR A   2      29.632  -3.684   6.788  0.00  0.00    +0.137 C 
ATOM     31  CG2 THR A   2      30.947  -2.955   7.034  0.00  0.00    +0.034 C 
BRANCH  30  32
ATOM     32  OG1 THR A   2      28.704  -2.798   6.142  0.00  0.00    -0.382 OA
ATOM     33  HG1 THR A   2      27.843  -3.267   6.006  0.00  0.00    +0.210 HD
ENDBRANCH  30  32
ENDBRANCH   1  30
TORSDOF 12
REMARK  Name = ../refined-set-2016/3b68/3b68_pocket.pdb
REMARK  284 active torsions:
REMARK  status: ('A' for Active; 'I' for Inactive)
REMARK    1  A    between atoms: _1  and  _3
REMARK    2  A    between atoms: _3  and  _4
REMARK    3  A    between atoms: _3  and  _6
REMARK    4  A    between atoms: _9  and  _11
REMARK    5  A    between atoms: _11  and  _12
REMARK    6  A    between atoms: _15  and  _17
REMARK    7  A    between atoms: _17  and  _18
REMARK    8  A    between atoms: _17  and  _20
REMARK    9  A    between atoms: _20  and  _21
REMARK   10  A    between atoms: _24  and  _26
REMARK   11  A    between atoms: _26  and  _27
REMARK   12  A    between atoms: _26  and  _29
REMARK   13  A    between atoms: _29  and  _30
REMARK   14  A    between atoms: _33  and  _35
REMARK   15  A    between atoms: _35  and  _36
REMARK   16  A    between atoms: _35  and  _38
REMARK   17  A    between atoms: _38  and  _39
REMARK   18  A    between atoms: _41  and  _43
REMARK   19  A    between atoms: _43  and  _44
REMARK   20  A    between atoms: _43  and  _46
REMARK   21  A    between atoms: _46  and  _47
REMARK   22  A    between atoms: _49  and  _51
REMARK   23  A    between atoms: _51  and  _52
REMARK   24  A    between atoms: _51  and  _54
REMARK   25  A    between atoms: _54  and  _55
REMARK   26  A    between atoms: _58  and  _60
REMARK   27  A    between atoms: _60  and  _61
REMARK   28  A    between atoms: _60  and  _63
REMARK   29  A    between atoms: _63  and  _64
REMARK   30  A    between atoms: _69  and  _71
REMARK   31  A    between atoms: _71  and  _72
REMARK   32  A    between atoms: _71  and  _74
REMARK   33  A    between atoms: _74  and  _75
REMARK   34  A    between atoms: _75  and  _76
REMARK   35  A    between atoms: _79  and  _81
REMARK   36  A    between atoms: _81  and  _82
REMARK   37  A    between atoms: _81  and  _84
REMARK   38  A    between atoms: _84  and  _85
REMARK   39  A    between atoms: _88  and  _90
REMARK   40  A    between atoms: _90  and  _91
REMARK   41  A    between atoms: _93  and  _95
REMARK   42  A    between atoms: _95  and  _96
REMARK   43  A    between atoms: _95  and  _98
REMARK   44  A    between atoms: _98  and  _99
REMARK   45  A    between atoms: _99  and  _100
REMARK   46  A    between atoms: _103  and  _105
REMARK   47  A    between atoms: _105  and  _106
REMARK   48  A    between atoms: _105  and  _108
REMARK   49  A    between atoms: _108  and  _109
REMARK   50  A    between atoms: _109  and  _110
REMARK   51  A    between atoms: _110  and  _111
REMARK   52  A    between atoms: _120  and  _122
REMARK   53  A    between atoms: _122  and  _123
REMARK   54  A    between atoms: _122  and  _125
REMARK   55  A    between atoms: _125  and  _126
REMARK   56  A    between atoms: _126  and  _127
REMARK   57  A    between atoms: _132  and  _134
REMARK   58  A    between atoms: _134  and  _135
REMARK   59  A    between atoms: _134  and  _137
REMARK   60  A    between atoms: _137  and  _138
REMARK   61  A    between atoms: _141  and  _143
REMARK   62  A    between atoms: _143  and  _144
REMARK   63  A    between atoms: _147  and  _149
REMARK   64  A    between atoms: _149  and  _150
REMARK   65  A    between atoms: _149  and  _152
REMARK   66  A    between atoms: _152  and  _153
REMARK   67  A    between atoms: _156  and  _158
REMARK   68  A    between atoms: _158  and  _159
REMARK   69  A    between atoms: _158  and  _161
REMARK   70  A    between atoms: _161  and  _162
REMARK   71  A    between atoms: _162  and  _163
REMARK   72  A    between atoms: _168  and  _170
REMARK   73  A    between atoms: _170  and  _171
REMARK   74  A    between atoms: _170  and  _173
REMARK   75  A    between atoms: _173  and  _174
REMARK   76  A    between atoms: _179  and  _180
REMARK   77  A    between atoms: _182  and  _184
REMARK   78  A    between atoms: _184  and  _185
REMARK   79  A    between atoms: _184  and  _187
REMARK   80  A    between atoms: _187  and  _188
REMARK   81  A    between atoms: _190  and  _192
REMARK   82  A    between atoms: _192  and  _193
REMARK   83  A    between atoms: _192  and  _195
REMARK   84  A    between atoms: _195  and  _196
REMARK   85  A    between atoms: _206  and  _208
REMARK   86  A    between atoms: _208  and  _209
REMARK   87  A    between atoms: _208  and  _211
REMARK   88  A    between atoms: _211  and  _212
REMARK   89  A    between atoms: _212  and  _213
REMARK   90  A    between atoms: _215  and  _217
REMARK   91  A    between atoms: _217  and  _218
REMARK   92  A    between atoms: _220  and  _222
REMARK   93  A    between atoms: _222  and  _223
REMARK   94  A    between atoms: _222  and  _225
REMARK   95  A    between atoms: _225  and  _226
REMARK   96  A    between atoms: _229  and  _231
REMARK   97  A    between atoms: _231  and  _232
REMARK   98  A    between atoms: _231  and  _234
REMARK   99  A    between atoms: _234  and  _235
REMARK  100  A    between atoms: _235  and  _236
REMARK  101  A    between atoms: _238  and  _240
REMARK  102  A    between atoms: _240  and  _241
REMARK  103  A    between atoms: _240  and  _243
REMARK  104  A    between atoms: _246  and  _248
REMARK  105  A    between atoms: _248  and  _249
REMARK  106  A    between atoms: _248  and  _251
REMARK  107  A    between atoms: _251  and  _252
REMARK  108  A    between atoms: _258  and  _260
REMARK  109  A    between atoms: _260  and  _261
REMARK  110  A    between atoms: _264  and  _266
REMARK  111  A    between atoms: _266  and  _267
REMARK  112  A    between atoms: _266  and  _269
REMARK  113  A    between atoms: _269  and  _270
REMARK  114  A    between atoms: _270  and  _271
REMARK  115  A    between atoms: _273  and  _275
REMARK  116  A    between atoms: _275  and  _276
REMARK  117  A    between atoms: _278  and  _280
REMARK  118  A    between atoms: _280  and  _281
REMARK  119  A    between atoms: _280  and  _283
REMARK  120  A    between atoms: _283  and  _284
REMARK  121  A    between atoms: _294  and  _296
REMARK  122  A    between atoms: _296  and  _297
REMARK  123  A    between atoms: _296  and  _299
REMARK  124  A    between atoms: _299  and  _300
REMARK  125  A    between atoms: _300  and  _301
REMARK  126  A    between atoms: _301  and  _302
REMARK  127  A    between atoms: _311  and  _313
REMARK  128  A    between atoms: _313  and  _314
REMARK  129  A    between atoms: _313  and  _316
REMARK  130  A    between atoms: _316  and  _317
REMARK  131  A    between atoms: _319  and  _321
REMARK  132  A    between atoms: _321  and  _322
REMARK  133  A    between atoms: _321  and  _324
REMARK  134  A    between atoms: _324  and  _325
REMARK  135  A    between atoms: _328  and  _330
REMARK  136  A    between atoms: _330  and  _331
REMARK  137  A    between atoms: _330  and  _333
REMARK  138  A    between atoms: _333  and  _334
REMARK  139  A    between atoms: _339  and  _340
REMARK  140  A    between atoms: _342  and  _344
REMARK  141  A    between atoms: _344  and  _345
REMARK  142  A    between atoms: _344  and  _347
REMARK  143  A    between atoms: _347  and  _348
REMARK  144  A    between atoms: _354  and  _356
REMARK  145  A    between atoms: _356  and  _357
REMARK  146  A    between atoms: _361  and  _362
REMARK  147  A    between atoms: _367  and  _369
REMARK  148  A    between atoms: _369  and  _370
REMARK  149  A    between atoms: _369  and  _372
REMARK  150  A    between atoms: _372  and  _373
REMARK  151  A    between atoms: _376  and  _378
REMARK  152  A    between atoms: _378  and  _379
REMARK  153  A    between atoms: _378  and  _381
REMARK  154  A    between atoms: _381  and  _382
REMARK  155  A    between atoms: _384  and  _386
REMARK  156  A    between atoms: _386  and  _387
REMARK  157  A    between atoms: _386  and  _389
REMARK  158  A    between atoms: _389  and  _390
REMARK  159  A    between atoms: _390  and  _391
REMARK  160  A    between atoms: _393  and  _395
REMARK  161  A    between atoms: _395  and  _396
REMARK  162  A    between atoms: _395  and  _398
REMARK  163  A    between atoms: _398  and  _399
REMARK  164  A    between atoms: _399  and  _400
REMARK  165  A    between atoms: _405  and  _407
REMARK  166  A    between atoms: _407  and  _408
REMARK  167  A    between atoms: _407  and  _410
REMARK  168  A    between atoms: _412  and  _414
REMARK  169  A    between atoms: _414  and  _415
REMARK  170  A    between atoms: _414  and  _417
REMARK  171  A    between atoms: _417  and  _418
REMARK  172  A    between atoms: _418  and  _419
REMARK  173  A    between atoms: _421  and  _423
REMARK  174  A    between atoms: _423  and  _424
REMARK  175  A    between atoms: _423  and  _426
REMARK  176  A    between atoms: _426  and  _427
REMARK  177  A    between atoms: _430  and  _432
REMARK  178  A    between atoms: _432  and  _433
REMARK  179  A    between atoms: _432  and  _435
REMARK  180  A    between atoms: _435  and  _436
REMARK  181  A    between atoms: _439  and  _441
REMARK  182  A    between atoms: _441  and  _442
REMARK  183  A    between atoms: _441  and  _444
REMARK  184  A    between atoms: _447  and  _449
REMARK  185  A    between atoms: _449  and  _450
REMARK  186  A    between atoms: _449  and  _452
REMARK  187  A    between atoms: _452  and  _453
REMARK  188  A    between atoms: _456  and  _458
REMARK  189  A    between atoms: _458  and  _459
REMARK  190  A    between atoms: _462  and  _464
REMARK  191  A    between atoms: _464  and  _465
REMARK  192  A    between atoms: _464  and  _467
REMARK  193  A    between atoms: _467  and  _468
REMARK  194  A    between atoms: _471  and  _473
REMARK  195  A    between atoms: _473  and  _474
REMARK  196  A    between atoms: _473  and  _476
REMARK  197  A    between atoms: _476  and  _477
REMARK  198  A    between atoms: _482  and  _484
REMARK  199  A    between atoms: _484  and  _485
REMARK  200  A    between atoms: _484  and  _487
REMARK  201  A    between atoms: _487  and  _488
REMARK  202  A    between atoms: _494  and  _496
REMARK  203  A    between atoms: _496  and  _497
REMARK  204  A    between atoms: _496  and  _499
REMARK  205  A    between atoms: _499  and  _500
REMARK  206  A    between atoms: _503  and  _505
REMARK  207  A    between atoms: _505  and  _506
REMARK  208  A    between atoms: _505  and  _508
REMARK  209  A    between atoms: _508  and  _509
REMARK  210  A    between atoms: _515  and  _517
REMARK  211  A    between atoms: _517  and  _518
REMARK  212  A    between atoms: _517  and  _520
REMARK  213  A    between atoms: _520  and  _521
REMARK  214  A    between atoms: _524  and  _526
REMARK  215  A    between atoms: _526  and  _527
REMARK  216  A    between atoms: _526  and  _529
REMARK  217  A    between atoms: _529  and  _530
REMARK  218  A    between atoms: _533  and  _535
REMARK  219  A    between atoms: _535  and  _536
REMARK  220  A    between atoms: _535  and  _538
REMARK  221  A    between atoms: _541  and  _543
REMARK  222  A    between atoms: _543  and  _544
REMARK  223  A    between atoms: _543  and  _546
REMARK  224  A    between atoms: _546  and  _547
REMARK  225  A    between atoms: _550  and  _552
REMARK  226  A    between atoms: _552  and  _553
REMARK  227  A    between atoms: _552  and  _555
REMARK  228  A    between atoms: _555  and  _556
REMARK  229  A    between atoms: _563  and  _564
REMARK  230  A    between atoms: _569  and  _571
REMARK  231  A    between atoms: _571  and  _572
REMARK  232  A    between atoms: _571  and  _574
REMARK  233  A    between atoms: _574  and  _575
REMARK  234  A    between atoms: _575  and  _576
REMARK  235  A    between atoms: _578  and  _580
REMARK  236  A    between atoms: _580  and  _581
REMARK  237  A    between atoms: _580  and  _583
REMARK  238  A    between atoms: _583  and  _584
REMARK  239  A    between atoms: _584  and  _585
REMARK  240  A    between atoms: _587  and  _589
REMARK  241  A    between atoms: _589  and  _590
REMARK  242  A    between atoms: _593  and  _595
REMARK  243  A    between atoms: _595  and  _596
REMARK  244  A    between atoms: _595  and  _598
REMARK  245  A    between atoms: _598  and  _599
REMARK  246  A    between atoms: _599  and  _600
REMARK  247  A    between atoms: _603  and  _605
REMARK  248  A    between atoms: _605  and  _606
REMARK  249  A    between atoms: _605  and  _608
REMARK  250  A    between atoms: _608  and  _609
REMARK  251  A    between atoms: _612  and  _614
REMARK  252  A    between atoms: _614  and  _615
REMARK  253  A    between atoms: _614  and  _617
REMARK  254  A    between atoms: _617  and  _618
REMARK  255  A    between atoms: _621  and  _623
REMARK  256  A    between atoms: _623  and  _624
REMARK  257  A    between atoms: _623  and  _626
REMARK  258  A    between atoms: _626  and  _627
REMARK  259  A    between atoms: _629  and  _631
REMARK  260  A    between atoms: _631  and  _632
REMARK  261  A    between atoms: _631  and  _634
REMARK  262  A    between atoms: _637  and  _639
REMARK  263  A    between atoms: _639  and  _640
REMARK  264  A    between atoms: _639  and  _642
REMARK  265  A    between atoms: _642  and  _643
REMARK  266  A    between atoms: _643  and  _644
REMARK  267  A    between atoms: _649  and  _651
REMARK  268  A    between atoms: _651  and  _652
REMARK  269  A    between atoms: _651  and  _654
REMARK  270  A    between atoms: _658  and  _659
REMARK  271  A    between atoms: _664  and  _666
REMARK  272  A    between atoms: _666  and  _667
REMARK  273  A    between atoms: _666  and  _669
REMARK  274  A    between atoms: _669  and  _670
REMARK  275  A    between atoms: _670  and  _671
REMARK  276  A    between atoms: _671  and  _672
REMARK  277  A    between atoms: _672  and  _673
REMARK  278  A    between atoms: _677  and  _679
REMARK  279  A    between atoms: _679  and  _680
REMARK  280  A    between atoms: _679  and  _682
REMARK  281  A    between atoms: _682  and  _683
REMARK  282  A    between atoms: _686  and  _688
REMARK  283  A    between atoms: _688  and  _689
REMARK  284  A    between atoms: _688  and  _691
REMARK                            x       y       z     vdW  Elec       q    Type
REMARK                         _______ _______ _______ _____ _____    ______ ____
ROOT
ATOM      1  C   LEU A   1      34.361  -7.421   3.692  0.00  0.00    +0.238 C 
ATOM      2  N   LEU A   2      34.425  -7.008   4.955  0.00  0.00    -0.298 N 
ATOM      3  H   LEU A   2      33.546  -6.894   5.500  0.00  0.00    +0.150 HD
ATOM      4  O   LEU A   1      35.355  -7.555   2.988  0.00  0.00    -0.274 OA
ENDROOT
BRANCH   1   5
ATOM      5  CA  LEU A   1      32.980  -7.735   3.132  0.00  0.00    +0.145 C 
BRANCH   5   6
ATOM      6  N   LEU A   1      32.139  -8.427   4.097  0.00  0.00    -0.238 NA
ATOM      7  H   LEU A   1      31.261  -7.973   4.420  0.00  0.00    +0.142 HD
ENDBRANCH   5   6
BRANCH   5   8
ATOM      8  CB  LEU A   1      32.291  -6.455   2.657  0.00  0.00    +0.026 C 
BRANCH   8   9
ATOM      9  CG  LEU A   1      33.065  -5.556   1.689  0.00  0.00    +0.002 C 
ATOM     10  CD2 LEU A   1      32.140  -4.462   1.203  0.00  0.00    +0.000 C 
ATOM     11  CD1 LEU A   1      33.613  -6.370   0.513  0.00  0.00    +0.000 C 
ENDBRANCH   8   9
ENDBRANCH   5   8
ENDBRANCH   1   5
BRANCH   2  12
ATOM     12  CA  LEU A   2      35.704  -6.712   5.590  0.00  0.00    +0.137 C 
BRANCH  12  13
ATOM     13  C   LEU A   2      36.560  -7.970   5.692  0.00  0.00    +0.227 C 
ATOM     14  O   LEU A   2      37.733  -7.960   5.325  0.00  0.00    -0.286 OA
ENDBRANCH  12  13
BRANCH  12  15
ATOM     15  CB  LEU A   2      35.497  -6.152   6.999  0.00  0.00    +0.028 C 
BRANCH  15  16
ATOM     16  CG  LEU A   2      36.798  -5.960   7.791  0.00  0.00    +0.002 C 
ATOM     17  CD2 LEU A   2      36.507  -5.681   9.264  0.00  0.00    +0.000 C 
ATOM     18  CD1 LEU A   2      37.581  -4.808   7.163  0.00  0.00    +0.000 C 
ENDBRANCH  15  16
ENDBRANCH  12  15
ENDBRANCH   2  12
TORSDOF 8
REMARK  Name = ../refined-set-2016/3b68/3b68_pocket.pdb
REMARK  284 active torsions:
REMARK  status: ('A' for Active; 'I' for Inactive)
REMARK    1  A    between atoms: _1  and  _3
REMARK    2  A    between atoms: _3  and  _4
REMARK    3  A    between atoms: _3  and  _6
REMARK    4  A    between atoms: _9  and  _11
REMARK    5  A    between atoms: _11  and  _12
REMARK    6  A    between atoms: _15  and  _17
REMARK    7  A    between atoms: _17  and  _18
REMARK    8  A    between atoms: _17  and  _20
REMARK    9  A    between atoms: _20  and  _21
REMARK   10  A    between atoms: _24  and  _26
REMARK   11  A    between atoms: _26  and  _27
REMARK   12  A    between atoms: _26  and  _29
REMARK   13  A    between atoms: _29  and  _30
REMARK   14  A    between atoms: _33  and  _35
REMARK   15  A    between atoms: _35  and  _36
REMARK   16  A    between atoms: _35  and  _38
REMARK   17  A    between atoms: _38  and  _39
REMARK   18  A    between atoms: _41  and  _43
REMARK   19  A    between atoms: _43  and  _44
REMARK   20  A    between atoms: _43  and  _46
REMARK   21  A    between atoms: _46  and  _47
REMARK   22  A    between atoms: _49  and  _51
REMARK   23  A    between atoms: _51  and  _52
REMARK   24  A    between atoms: _51  and  _54
REMARK   25  A    between atoms: _54  and  _55
REMARK   26  A    between atoms: _58  and  _60
REMARK   27  A    between atoms: _60  and  _61
REMARK   28  A    between atoms: _60  and  _63
REMARK   29  A    between atoms: _63  and  _64
REMARK   30  A    between atoms: _69  and  _71
REMARK   31  A    between atoms: _71  and  _72
REMARK   32  A    between atoms: _71  and  _74
REMARK   33  A    between atoms: _74  and  _75
REMARK   34  A    between atoms: _75  and  _76
REMARK   35  A    between atoms: _79  and  _81
REMARK   36  A    between atoms: _81  and  _82
REMARK   37  A    between atoms: _81  and  _84
REMARK   38  A    between atoms: _84  and  _85
REMARK   39  A    between atoms: _88  and  _90
REMARK   40  A    between atoms: _90  and  _91
REMARK   41  A    between atoms: _93  and  _95
REMARK   42  A    between atoms: _95  and  _96
REMARK   43  A    between atoms: _95  and  _98
REMARK   44  A    between atoms: _98  and  _99
REMARK   45  A    between atoms: _99  and  _100
REMARK   46  A    between atoms: _103  and  _105
REMARK   47  A    between atoms: _105  and  _106
REMARK   48  A    between atoms: _105  and  _108
REMARK   49  A    between atoms: _108  and  _109
REMARK   50  A    between atoms: _109  and  _110
REMARK   51  A    between atoms: _110  and  _111
REMARK   52  A    between atoms: _120  and  _122
REMARK   53  A    between atoms: _122  and  _123
REMARK   54  A    between atoms: _122  and  _125
REMARK   55  A    between atoms: _125  and  _126
REMARK   56  A    between atoms: _126  and  _127
REMARK   57  A    between atoms: _132  and  _134
REMARK   58  A    between atoms: _134  and  _135
REMARK   59  A    between atoms: _134  and  _137
REMARK   60  A    between atoms: _137  and  _138
REMARK   61  A    between atoms: _141  and  _143
REMARK   62  A    between atoms: _143  and  _144
REMARK   63  A    between atoms: _147  and  _149
REMARK   64  A    between atoms: _149  and  _150
REMARK   65  A    between atoms: _149  and  _152
REMARK   66  A    between atoms: _152  and  _153
REMARK   67  A    between atoms: _156  and  _158
REMARK   68  A    between atoms: _158  and  _159
REMARK   69  A    between atoms: _158  and  _161
REMARK   70  A    between atoms: _161  and  _162
REMARK   71  A    between atoms: _162  and  _163
REMARK   72  A    between atoms: _168  and  _170
REMARK   73  A    between atoms: _170  and  _171
REMARK   74  A    between atoms: _170  and  _173
REMARK   75  A    between atoms: _173  and  _174
REMARK   76  A    between atoms: _179  and  _180
REMARK   77  A    between atoms: _182  and  _184
REMARK   78  A    between atoms: _184  and  _185
REMARK   79  A    between atoms: _184  and  _187
REMARK   80  A    between atoms: _187  and  _188
REMARK   81  A    between atoms: _190  and  _192
REMARK   82  A    between atoms: _192  and  _193
REMARK   83  A    between atoms: _192  and  _195
REMARK   84  A    between atoms: _195  and  _196
REMARK   85  A    between atoms: _206  and  _208
REMARK   86  A    between atoms: _208  and  _209
REMARK   87  A    between atoms: _208  and  _211
REMARK   88  A    between atoms: _211  and  _212
REMARK   89  A    between atoms: _212  and  _213
REMARK   90  A    between atoms: _215  and  _217
REMARK   91  A    between atoms: _217  and  _218
REMARK   92  A    between atoms: _220  and  _222
REMARK   93  A    between atoms: _222  and  _223
REMARK   94  A    between atoms: _222  and  _225
REMARK   95  A    between atoms: _225  and  _226
REMARK   96  A    between atoms: _229  and  _231
REMARK   97  A    between atoms: _231  and  _232
REMARK   98  A    between atoms: _231  and  _234
REMARK   99  A    between atoms: _234  and  _235
REMARK  100  A    between atoms: _235  and  _236
REMARK  101  A    between atoms: _238  and  _240
REMARK  102  A    between atoms: _240  and  _241
REMARK  103  A    between atoms: _240  and  _243
REMARK  104  A    between atoms: _246  and  _248
REMARK  105  A    between atoms: _248  and  _249
REMARK  106  A    between atoms: _248  and  _251
REMARK  107  A    between atoms: _251  and  _252
REMARK  108  A    between atoms: _258  and  _260
REMARK  109  A    between atoms: _260  and  _261
REMARK  110  A    between atoms: _264  and  _266
REMARK  111  A    between atoms: _266  and  _267
REMARK  112  A    between atoms: _266  and  _269
REMARK  113  A    between atoms: _269  and  _270
REMARK  114  A    between atoms: _270  and  _271
REMARK  115  A    between atoms: _273  and  _275
REMARK  116  A    between atoms: _275  and  _276
REMARK  117  A    between atoms: _278  and  _280
REMARK  118  A    between atoms: _280  and  _281
REMARK  119  A    between atoms: _280  and  _283
REMARK  120  A    between atoms: _283  and  _284
REMARK  121  A    between atoms: _294  and  _296
REMARK  122  A    between atoms: _296  and  _297
REMARK  123  A    between atoms: _296  and  _299
REMARK  124  A    between atoms: _299  and  _300
REMARK  125  A    between atoms: _300  and  _301
REMARK  126  A    between atoms: _301  and  _302
REMARK  127  A    between atoms: _311  and  _313
REMARK  128  A    between atoms: _313  and  _314
REMARK  129  A    between atoms: _313  and  _316
REMARK  130  A    between atoms: _316  and  _317
REMARK  131  A    between atoms: _319  and  _321
REMARK  132  A    between atoms: _321  and  _322
REMARK  133  A    between atoms: _321  and  _324
REMARK  134  A    between atoms: _324  and  _325
REMARK  135  A    between atoms: _328  and  _330
REMARK  136  A    between atoms: _330  and  _331
REMARK  137  A    between atoms: _330  and  _333
REMARK  138  A    between atoms: _333  and  _334
REMARK  139  A    between atoms: _339  and  _340
REMARK  140  A    between atoms: _342  and  _344
REMARK  141  A    between atoms: _344  and  _345
REMARK  142  A    between atoms: _344  and  _347
REMARK  143  A    between atoms: _347  and  _348
REMARK  144  A    between atoms: _354  and  _356
REMARK  145  A    between atoms: _356  and  _357
REMARK  146  A    between atoms: _361  and  _362
REMARK  147  A    between atoms: _367  and  _369
REMARK  148  A    between atoms: _369  and  _370
REMARK  149  A    between atoms: _369  and  _372
REMARK  150  A    between atoms: _372  and  _373
REMARK  151  A    between atoms: _376  and  _378
REMARK  152  A    between atoms: _378  and  _379
REMARK  153  A    between atoms: _378  and  _381
REMARK  154  A    between atoms: _381  and  _382
REMARK  155  A    between atoms: _384  and  _386
REMARK  156  A    between atoms: _386  and  _387
REMARK  157  A    between atoms: _386  and  _389
REMARK  158  A    between atoms: _389  and  _390
REMARK  159  A    between atoms: _390  and  _391
REMARK  160  A    between atoms: _393  and  _395
REMARK  161  A    between atoms: _395  and  _396
REMARK  162  A    between atoms: _395  and  _398
REMARK  163  A    between atoms: _398  and  _399
REMARK  164  A    between atoms: _399  and  _400
REMARK  165  A    between atoms: _405  and  _407
REMARK  166  A    between atoms: _407  and  _408
REMARK  167  A    between atoms: _407  and  _410
REMARK  168  A    between atoms: _412  and  _414
REMARK  169  A    between atoms: _414  and  _415
REMARK  170  A    between atoms: _414  and  _417
REMARK  171  A    between atoms: _417  and  _418
REMARK  172  A    between atoms: _418  and  _419
REMARK  173  A    between atoms: _421  and  _423
REMARK  174  A    between atoms: _423  and  _424
REMARK  175  A    between atoms: _423  and  _426
REMARK  176  A    between atoms: _426  and  _427
REMARK  177  A    between atoms: _430  and  _432
REMARK  178  A    between atoms: _432  and  _433
REMARK  179  A    between atoms: _432  and  _435
REMARK  180  A    between atoms: _435  and  _436
REMARK  181  A    between atoms: _439  and  _441
REMARK  182  A    between atoms: _441  and  _442
REMARK  183  A    between atoms: _441  and  _444
REMARK  184  A    between atoms: _447  and  _449
REMARK  185  A    between atoms: _449  and  _450
REMARK  186  A    between atoms: _449  and  _452
REMARK  187  A    between atoms: _452  and  _453
REMARK  188  A    between atoms: _456  and  _458
REMARK  189  A    between atoms: _458  and  _459
REMARK  190  A    between atoms: _462  and  _464
REMARK  191  A    between atoms: _464  and  _465
REMARK  192  A    between atoms: _464  and  _467
REMARK  193  A    between atoms: _467  and  _468
REMARK  194  A    between atoms: _471  and  _473
REMARK  195  A    between atoms: _473  and  _474
REMARK  196  A    between atoms: _473  and  _476
REMARK  197  A    between atoms: _476  and  _477
REMARK  198  A    between atoms: _482  and  _484
REMARK  199  A    between atoms: _484  and  _485
REMARK  200  A    between atoms: _484  and  _487
REMARK  201  A    between atoms: _487  and  _488
REMARK  202  A    between atoms: _494  and  _496
REMARK  203  A    between atoms: _496  and  _497
REMARK  204  A    between atoms: _496  and  _499
REMARK  205  A    between atoms: _499  and  _500
REMARK  206  A    between atoms: _503  and  _505
REMARK  207  A    between atoms: _505  and  _506
REMARK  208  A    between atoms: _505  and  _508
REMARK  209  A    between atoms: _508  and  _509
REMARK  210  A    between atoms: _515  and  _517
REMARK  211  A    between atoms: _517  and  _518
REMARK  212  A    between atoms: _517  and  _520
REMARK  213  A    between atoms: _520  and  _521
REMARK  214  A    between atoms: _524  and  _526
REMARK  215  A    between atoms: _526  and  _527
REMARK  216  A    between atoms: _526  and  _529
REMARK  217  A    between atoms: _529  and  _530
REMARK  218  A    between atoms: _533  and  _535
REMARK  219  A    between atoms: _535  and  _536
REMARK  220  A    between atoms: _535  and  _538
REMARK  221  A    between atoms: _541  and  _543
REMARK  222  A    between atoms: _543  and  _544
REMARK  223  A    between atoms: _543  and  _546
REMARK  224  A    between atoms: _546  and  _547
REMARK  225  A    between atoms: _550  and  _552
REMARK  226  A    between atoms: _552  and  _553
REMARK  227  A    between atoms: _552  and  _555
REMARK  228  A    between atoms: _555  and  _556
REMARK  229  A    between atoms: _563  and  _564
REMARK  230  A    between atoms: _569  and  _571
REMARK  231  A    between atoms: _571  and  _572
REMARK  232  A    between atoms: _571  and  _574
REMARK  233  A    between atoms: _574  and  _575
REMARK  234  A    between atoms: _575  and  _576
REMARK  235  A    between atoms: _578  and  _580
REMARK  236  A    between atoms: _580  and  _581
REMARK  237  A    between atoms: _580  and  _583
REMARK  238  A    between atoms: _583  and  _584
REMARK  239  A    between atoms: _584  and  _585
REMARK  240  A    between atoms: _587  and  _589
REMARK  241  A    between atoms: _589  and  _590
REMARK  242  A    between atoms: _593  and  _595
REMARK  243  A    between atoms: _595  and  _596
REMARK  244  A    between atoms: _595  and  _598
REMARK  245  A    between atoms: _598  and  _599
REMARK  246  A    between atoms: _599  and  _600
REMARK  247  A    between atoms: _603  and  _605
REMARK  248  A    between atoms: _605  and  _606
REMARK  249  A    between atoms: _605  and  _608
REMARK  250  A    between atoms: _608  and  _609
REMARK  251  A    between atoms: _612  and  _614
REMARK  252  A    between atoms: _614  and  _615
REMARK  253  A    between atoms: _614  and  _617
REMARK  254  A    between atoms: _617  and  _618
REMARK  255  A    between atoms: _621  and  _623
REMARK  256  A    between atoms: _623  and  _624
REMARK  257  A    between atoms: _623  and  _626
REMARK  258  A    between atoms: _626  and  _627
REMARK  259  A    between atoms: _629  and  _631
REMARK  260  A    between atoms: _631  and  _632
REMARK  261  A    between atoms: _631  and  _634
REMARK  262  A    between atoms: _637  and  _639
REMARK  263  A    between atoms: _639  and  _640
REMARK  264  A    between atoms: _639  and  _642
REMARK  265  A    between atoms: _642  and  _643
REMARK  266  A    between atoms: _643  and  _644
REMARK  267  A    between atoms: _649  and  _651
REMARK  268  A    between atoms: _651  and  _652
REMARK  269  A    between atoms: _651  and  _654
REMARK  270  A    between atoms: _658  and  _659
REMARK  271  A    between atoms: _664  and  _666
REMARK  272  A    between atoms: _666  and  _667
REMARK  273  A    between atoms: _666  and  _669
REMARK  274  A    between atoms: _669  and  _670
REMARK  275  A    between atoms: _670  and  _671
REMARK  276  A    between atoms: _671  and  _672
REMARK  277  A    between atoms: _672  and  _673
REMARK  278  A    between atoms: _677  and  _679
REMARK  279  A    between atoms: _679  and  _680
REMARK  280  A    between atoms: _679  and  _682
REMARK  281  A    between atoms: _682  and  _683
REMARK  282  A    between atoms: _686  and  _688
REMARK  283  A    between atoms: _688  and  _689
REMARK  284  A    between atoms: _688  and  _691
REMARK                            x       y       z     vdW  Elec       q    Type
REMARK                         _______ _______ _______ _____ _____    ______ ____
ROOT
ATOM      1  C   ASP A   2      38.944   0.086   1.734  0.00  0.00    +0.241 C 
ATOM      2  N   PHE A   3      39.186  -0.490   2.910  0.00  0.00    -0.297 N 
ATOM      3  H   PHE A   3      39.853  -1.286   2.955  0.00  0.00    +0.150 HD
ATOM      4  O   ASP A   2      38.157   1.028   1.584  0.00  0.00    -0.273 OA
ENDROOT
BRANCH   1   5
ATOM      5  CA  ASP A   2      39.704  -0.489   0.547  0.00  0.00    +0.160 C 
BRANCH   5   8
ATOM      6  C   VAL A   1      38.890  -2.577  -0.418  0.00  0.00    +0.238 C 
ATOM      7  O   VAL A   1      39.635  -3.254   0.289  0.00  0.00    -0.274 OA
ATOM      8  N   ASP A   2      38.850  -1.249  -0.362  0.00  0.00    -0.297 N 
ATOM      9  H   ASP A   2      38.192  -0.737  -0.983  0.00  0.00    +0.150 HD
BRANCH   6  10
ATOM     10  CA  VAL A   1      37.953  -3.244  -1.423  0.00  0.00    +0.145 C 
BRANCH  10  11
ATOM     11  CB  VAL A   1      36.668  -3.696  -0.698  0.00  0.00    +0.025 C 
ATOM     12  CG2 VAL A   1      36.066  -2.531   0.073  0.00  0.00    +0.002 C 
ATOM     13  CG1 VAL A   1      35.666  -4.228  -1.708  0.00  0.00    +0.002 C 
ENDBRANCH  10  11
BRANCH  10  14
ATOM     14  N   VAL A   1      38.655  -4.370  -2.031  0.00  0.00    -0.238 NA
ATOM     15  H   VAL A   1      38.610  -5.308  -1.584  0.00  0.00    +0.142 HD
ENDBRANCH  10  14
ENDBRANCH   6  10
ENDBRANCH   5   8
BRANCH   5  16
ATOM     16  CB  ASP A   2      40.394   0.656  -0.203  0.00  0.00    +0.143 C 
BRANCH  16  17
ATOM     17  CG  ASP A   2      41.464   0.168  -1.160  0.00  0.00    +0.367 C 
ATOM     18  OD2 ASP A   2      42.643   0.531  -0.961  0.00  0.00    -0.246 OA
ATOM     19  OD1 ASP A   2      41.127  -0.578  -2.106  0.00  0.00    -0.246 OA
ENDBRANCH  16  17
ENDBRANCH   5  16
ENDBRANCH   1   5
BRANCH   2  20
ATOM     20  CA  PHE A   3      38.543  -0.036   4.132  0.00  0.00    +0.153 C 
BRANCH  20  21
ATOM     21  C   PHE A   3      39.440   0.942   4.858  0.00  0.00    +0.244 C 
ATOM     22  N   PRO A   4      38.898   2.115   5.210  0.00  0.00    -0.273 N 
ATOM     23  CA  PRO A   4      39.696   3.111   5.926  0.00  0.00    +0.140 C 
ATOM     24  CB  PRO A   4      38.699   4.240   6.165  0.00  0.00    +0.030 C 
ATOM     25  CG  PRO A   4      37.843   4.174   4.950  0.00  0.00    +0.024 C 
ATOM     26  CD  PRO A   4      37.601   2.680   4.801  0.00  0.00    +0.094 C 
ATOM     27  O   PHE A   3      40.620   0.668   5.081  0.00  0.00    -0.273 OA
BRANCH  23  28
ATOM     28  C   PRO A   4      40.176   2.482   7.228  0.00  0.00    +0.227 C 
ATOM     29  O   PRO A   4      39.477   1.657   7.816  0.00  0.00    -0.286 OA
ENDBRANCH  23  28
ENDBRANCH  20  21
BRANCH  20  30
ATOM     30  CB  PHE A   3      38.232  -1.208   5.071  0.00  0.00    +0.055 C 
BRANCH  30  31
ATOM     31  CG  PHE A   3      36.966  -1.944   4.735  0.00  0.00    -0.020 A 
ATOM     32  CD2 PHE A   3      35.740  -1.490   5.216  0.00  0.00    -0.004 A 
ATOM     33  CE2 PHE A   3      34.551  -2.175   4.915  0.00  0.00    -0.000 A 
ATOM     34  CZ  PHE A   3      34.593  -3.325   4.127  0.00  0.00    -0.000 A 
ATOM     35  CE1 PHE A   3      35.824  -3.786   3.641  0.00  0.00    -0.000 A 
ATOM     36  CD1 PHE A   3      36.997  -3.093   3.947  0.00  0.00    -0.004 A 
ENDBRANCH  30  31
ENDBRANCH  20  30
ENDBRANCH   2  20
TORSDOF 12
REMARK  Name = ../refined-set-2016/3b68/3b68_pocket.pdb
REMARK  284 active torsions:
REMARK  status: ('A' for Active; 'I' for Inactive)
REMARK    1  A    between atoms: _1  and  _3
REMARK    2  A    between atoms: _3  and  _4
REMARK    3  A    between atoms: _3  and  _6
REMARK    4  A    between atoms: _9  and  _11
REMARK    5  A    between atoms: _11  and  _12
REMARK    6  A    between atoms: _15  and  _17
REMARK    7  A    between atoms: _17  and  _18
REMARK    8  A    between atoms: _17  and  _20
REMARK    9  A    between atoms: _20  and  _21
REMARK   10  A    between atoms: _24  and  _26
REMARK   11  A    between atoms: _26  and  _27
REMARK   12  A    between atoms: _26  and  _29
REMARK   13  A    between atoms: _29  and  _30
REMARK   14  A    between atoms: _33  and  _35
REMARK   15  A    between atoms: _35  and  _36
REMARK   16  A    between atoms: _35  and  _38
REMARK   17  A    between atoms: _38  and  _39
REMARK   18  A    between atoms: _41  and  _43
REMARK   19  A    between atoms: _43  and  _44
REMARK   20  A    between atoms: _43  and  _46
REMARK   21  A    between atoms: _46  and  _47
REMARK   22  A    between atoms: _49  and  _51
REMARK   23  A    between atoms: _51  and  _52
REMARK   24  A    between atoms: _51  and  _54
REMARK   25  A    between atoms: _54  and  _55
REMARK   26  A    between atoms: _58  and  _60
REMARK   27  A    between atoms: _60  and  _61
REMARK   28  A    between atoms: _60  and  _63
REMARK   29  A    between atoms: _63  and  _64
REMARK   30  A    between atoms: _69  and  _71
REMARK   31  A    between atoms: _71  and  _72
REMARK   32  A    between atoms: _71  and  _74
REMARK   33  A    between atoms: _74  and  _75
REMARK   34  A    between atoms: _75  and  _76
REMARK   35  A    between atoms: _79  and  _81
REMARK   36  A    between atoms: _81  and  _82
REMARK   37  A    between atoms: _81  and  _84
REMARK   38  A    between atoms: _84  and  _85
REMARK   39  A    between atoms: _88  and  _90
REMARK   40  A    between atoms: _90  and  _91
REMARK   41  A    between atoms: _93  and  _95
REMARK   42  A    between atoms: _95  and  _96
REMARK   43  A    between atoms: _95  and  _98
REMARK   44  A    between atoms: _98  and  _99
REMARK   45  A    between atoms: _99  and  _100
REMARK   46  A    between atoms: _103  and  _105
REMARK   47  A    between atoms: _105  and  _106
REMARK   48  A    between atoms: _105  and  _108
REMARK   49  A    between atoms: _108  and  _109
REMARK   50  A    between atoms: _109  and  _110
REMARK   51  A    between atoms: _110  and  _111
REMARK   52  A    between atoms: _120  and  _122
REMARK   53  A    between atoms: _122  and  _123
REMARK   54  A    between atoms: _122  and  _125
REMARK   55  A    between atoms: _125  and  _126
REMARK   56  A    between atoms: _126  and  _127
REMARK   57  A    between atoms: _132  and  _134
REMARK   58  A    between atoms: _134  and  _135
REMARK   59  A    between atoms: _134  and  _137
REMARK   60  A    between atoms: _137  and  _138
REMARK   61  A    between atoms: _141  and  _143
REMARK   62  A    between atoms: _143  and  _144
REMARK   63  A    between atoms: _147  and  _149
REMARK   64  A    between atoms: _149  and  _150
REMARK   65  A    between atoms: _149  and  _152
REMARK   66  A    between atoms: _152  and  _153
REMARK   67  A    between atoms: _156  and  _158
REMARK   68  A    between atoms: _158  and  _159
REMARK   69  A    between atoms: _158  and  _161
REMARK   70  A    between atoms: _161  and  _162
REMARK   71  A    between atoms: _162  and  _163
REMARK   72  A    between atoms: _168  and  _170
REMARK   73  A    between atoms: _170  and  _171
REMARK   74  A    between atoms: _170  and  _173
REMARK   75  A    between atoms: _173  and  _174
REMARK   76  A    between atoms: _179  and  _180
REMARK   77  A    between atoms: _182  and  _184
REMARK   78  A    between atoms: _184  and  _185
REMARK   79  A    between atoms: _184  and  _187
REMARK   80  A    between atoms: _187  and  _188
REMARK   81  A    between atoms: _190  and  _192
REMARK   82  A    between atoms: _192  and  _193
REMARK   83  A    between atoms: _192  and  _195
REMARK   84  A    between atoms: _195  and  _196
REMARK   85  A    between atoms: _206  and  _208
REMARK   86  A    between atoms: _208  and  _209
REMARK   87  A    between atoms: _208  and  _211
REMARK   88  A    between atoms: _211  and  _212
REMARK   89  A    between atoms: _212  and  _213
REMARK   90  A    between atoms: _215  and  _217
REMARK   91  A    between atoms: _217  and  _218
REMARK   92  A    between atoms: _220  and  _222
REMARK   93  A    between atoms: _222  and  _223
REMARK   94  A    between atoms: _222  and  _225
REMARK   95  A    between atoms: _225  and  _226
REMARK   96  A    between atoms: _229  and  _231
REMARK   97  A    between atoms: _231  and  _232
REMARK   98  A    between atoms: _231  and  _234
REMARK   99  A    between atoms: _234  and  _235
REMARK  100  A    between atoms: _235  and  _236
REMARK  101  A    between atoms: _238  and  _240
REMARK  102  A    between atoms: _240  and  _241
REMARK  103  A    between atoms: _240  and  _243
REMARK  104  A    between atoms: _246  and  _248
REMARK  105  A    between atoms: _248  and  _249
REMARK  106  A    between atoms: _248  and  _251
REMARK  107  A    between atoms: _251  and  _252
REMARK  108  A    between atoms: _258  and  _260
REMARK  109  A    between atoms: _260  and  _261
REMARK  110  A    between atoms: _264  and  _266
REMARK  111  A    between atoms: _266  and  _267
REMARK  112  A    between atoms: _266  and  _269
REMARK  113  A    between atoms: _269  and  _270
REMARK  114  A    between atoms: _270  and  _271
REMARK  115  A    between atoms: _273  and  _275
REMARK  116  A    between atoms: _275  and  _276
REMARK  117  A    between atoms: _278  and  _280
REMARK  118  A    between atoms: _280  and  _281
REMARK  119  A    between atoms: _280  and  _283
REMARK  120  A    between atoms: _283  and  _284
REMARK  121  A    between atoms: _294  and  _296
REMARK  122  A    between atoms: _296  and  _297
REMARK  123  A    between atoms: _296  and  _299
REMARK  124  A    between atoms: _299  and  _300
REMARK  125  A    between atoms: _300  and  _301
REMARK  126  A    between atoms: _301  and  _302
REMARK  127  A    between atoms: _311  and  _313
REMARK  128  A    between atoms: _313  and  _314
REMARK  129  A    between atoms: _313  and  _316
REMARK  130  A    between atoms: _316  and  _317
REMARK  131  A    between atoms: _319  and  _321
REMARK  132  A    between atoms: _321  and  _322
REMARK  133  A    between atoms: _321  and  _324
REMARK  134  A    between atoms: _324  and  _325
REMARK  135  A    between atoms: _328  and  _330
REMARK  136  A    between atoms: _330  and  _331
REMARK  137  A    between atoms: _330  and  _333
REMARK  138  A    between atoms: _333  and  _334
REMARK  139  A    between atoms: _339  and  _340
REMARK  140  A    between atoms: _342  and  _344
REMARK  141  A    between atoms: _344  and  _345
REMARK  142  A    between atoms: _344  and  _347
REMARK  143  A    between atoms: _347  and  _348
REMARK  144  A    between atoms: _354  and  _356
REMARK  145  A    between atoms: _356  and  _357
REMARK  146  A    between atoms: _361  and  _362
REMARK  147  A    between atoms: _367  and  _369
REMARK  148  A    between atoms: _369  and  _370
REMARK  149  A    between atoms: _369  and  _372
REMARK  150  A    between atoms: _372  and  _373
REMARK  151  A    between atoms: _376  and  _378
REMARK  152  A    between atoms: _378  and  _379
REMARK  153  A    between atoms: _378  and  _381
REMARK  154  A    between atoms: _381  and  _382
REMARK  155  A    between atoms: _384  and  _386
REMARK  156  A    between atoms: _386  and  _387
REMARK  157  A    between atoms: _386  and  _389
REMARK  158  A    between atoms: _389  and  _390
REMARK  159  A    between atoms: _390  and  _391
REMARK  160  A    between atoms: _393  and  _395
REMARK  161  A    between atoms: _395  and  _396
REMARK  162  A    between atoms: _395  and  _398
REMARK  163  A    between atoms: _398  and  _399
REMARK  164  A    between atoms: _399  and  _400
REMARK  165  A    between atoms: _405  and  _407
REMARK  166  A    between atoms: _407  and  _408
REMARK  167  A    between atoms: _407  and  _410
REMARK  168  A    between atoms: _412  and  _414
REMARK  169  A    between atoms: _414  and  _415
REMARK  170  A    between atoms: _414  and  _417
REMARK  171  A    between atoms: _417  and  _418
REMARK  172  A    between atoms: _418  and  _419
REMARK  173  A    between atoms: _421  and  _423
REMARK  174  A    between atoms: _423  and  _424
REMARK  175  A    between atoms: _423  and  _426
REMARK  176  A    between atoms: _426  and  _427
REMARK  177  A    between atoms: _430  and  _432
REMARK  178  A    between atoms: _432  and  _433
REMARK  179  A    between atoms: _432  and  _435
REMARK  180  A    between atoms: _435  and  _436
REMARK  181  A    between atoms: _439  and  _441
REMARK  182  A    between atoms: _441  and  _442
REMARK  183  A    between atoms: _441  and  _444
REMARK  184  A    between atoms: _447  and  _449
REMARK  185  A    between atoms: _449  and  _450
REMARK  186  A    between atoms: _449  and  _452
REMARK  187  A    between atoms: _452  and  _453
REMARK  188  A    between atoms: _456  and  _458
REMARK  189  A    between atoms: _458  and  _459
REMARK  190  A    between atoms: _462  and  _464
REMARK  191  A    between atoms: _464  and  _465
REMARK  192  A    between atoms: _464  and  _467
REMARK  193  A    between atoms: _467  and  _468
REMARK  194  A    between atoms: _471  and  _473
REMARK  195  A    between atoms: _473  and  _474
REMARK  196  A    between atoms: _473  and  _476
REMARK  197  A    between atoms: _476  and  _477
REMARK  198  A    between atoms: _482  and  _484
REMARK  199  A    between atoms: _484  and  _485
REMARK  200  A    between atoms: _484  and  _487
REMARK  201  A    between atoms: _487  and  _488
REMARK  202  A    between atoms: _494  and  _496
REMARK  203  A    between atoms: _496  and  _497
REMARK  204  A    between atoms: _496  and  _499
REMARK  205  A    between atoms: _499  and  _500
REMARK  206  A    between atoms: _503  and  _505
REMARK  207  A    between atoms: _505  and  _506
REMARK  208  A    between atoms: _505  and  _508
REMARK  209  A    between atoms: _508  and  _509
REMARK  210  A    between atoms: _515  and  _517
REMARK  211  A    between atoms: _517  and  _518
REMARK  212  A    between atoms: _517  and  _520
REMARK  213  A    between atoms: _520  and  _521
REMARK  214  A    between atoms: _524  and  _526
REMARK  215  A    between atoms: _526  and  _527
REMARK  216  A    between atoms: _526  and  _529
REMARK  217  A    between atoms: _529  and  _530
REMARK  218  A    between atoms: _533  and  _535
REMARK  219  A    between atoms: _535  and  _536
REMARK  220  A    between atoms: _535  and  _538
REMARK  221  A    between atoms: _541  and  _543
REMARK  222  A    between atoms: _543  and  _544
REMARK  223  A    between atoms: _543  and  _546
REMARK  224  A    between atoms: _546  and  _547
REMARK  225  A    between atoms: _550  and  _552
REMARK  226  A    between atoms: _552  and  _553
REMARK  227  A    between atoms: _552  and  _555
REMARK  228  A    between atoms: _555  and  _556
REMARK  229  A    between atoms: _563  and  _564
REMARK  230  A    between atoms: _569  and  _571
REMARK  231  A    between atoms: _571  and  _572
REMARK  232  A    between atoms: _571  and  _574
REMARK  233  A    between atoms: _574  and  _575
REMARK  234  A    between atoms: _575  and  _576
REMARK  235  A    between atoms: _578  and  _580
REMARK  236  A    between atoms: _580  and  _581
REMARK  237  A    between atoms: _580  and  _583
REMARK  238  A    between atoms: _583  and  _584
REMARK  239  A    between atoms: _584  and  _585
REMARK  240  A    between atoms: _587  and  _589
REMARK  241  A    between atoms: _589  and  _590
REMARK  242  A    between atoms: _593  and  _595
REMARK  243  A    between atoms: _595  and  _596
REMARK  244  A    between atoms: _595  and  _598
REMARK  245  A    between atoms: _598  and  _599
REMARK  246  A    between atoms: _599  and  _600
REMARK  247  A    between atoms: _603  and  _605
REMARK  248  A    between atoms: _605  and  _606
REMARK  249  A    between atoms: _605  and  _608
REMARK  250  A    between atoms: _608  and  _609
REMARK  251  A    between atoms: _612  and  _614
REMARK  252  A    between atoms: _614  and  _615
REMARK  253  A    between atoms: _614  and  _617
REMARK  254  A    between atoms: _617  and  _618
REMARK  255  A    between atoms: _621  and  _623
REMARK  256  A    between atoms: _623  and  _624
REMARK  257  A    between atoms: _623  and  _626
REMARK  258  A    between atoms: _626  and  _627
REMARK  259  A    between atoms: _629  and  _631
REMARK  260  A    between atoms: _631  and  _632
REMARK  261  A    between atoms: _631  and  _634
REMARK  262  A    between atoms: _637  and  _639
REMARK  263  A    between atoms: _639  and  _640
REMARK  264  A    between atoms: _639  and  _642
REMARK  265  A    between atoms: _642  and  _643
REMARK  266  A    between atoms: _643  and  _644
REMARK  267  A    between atoms: _649  and  _651
REMARK  268  A    between atoms: _651  and  _652
REMARK  269  A    between atoms: _651  and  _654
REMARK  270  A    between atoms: _658  and  _659
REMARK  271  A    between atoms: _664  and  _666
REMARK  272  A    between atoms: _666  and  _667
REMARK  273  A    between atoms: _666  and  _669
REMARK  274  A    between atoms: _669  and  _670
REMARK  275  A    between atoms: _670  and  _671
REMARK  276  A    between atoms: _671  and  _672
REMARK  277  A    between atoms: _672  and  _673
REMARK  278  A    between atoms: _677  and  _679
REMARK  279  A    between atoms: _679  and  _680
REMARK  280  A    between atoms: _679  and  _682
REMARK  281  A    between atoms: _682  and  _683
REMARK  282  A    between atoms: _686  and  _688
REMARK  283  A    between atoms: _688  and  _689
REMARK  284  A    between atoms: _688  and  _691
REMARK                            x       y       z     vdW  Elec       q    Type
REMARK                         _______ _______ _______ _____ _____    ______ ____
ROOT
ATOM      1  C   SER A   7      35.719  -5.601  15.344  0.00  0.00    +0.243 C 
ATOM      2  N   VAL A   8      35.594  -4.453  16.001  0.00  0.00    -0.297 N 
ATOM      3  H   VAL A   8      35.699  -3.553  15.491  0.00  0.00    +0.150 HD
ATOM      4  O   SER A   7      35.583  -6.692  15.894  0.00  0.00    -0.273 OA
ENDROOT
BRANCH   2   5
ATOM      5  CA  VAL A   8      35.311  -4.444  17.433  0.00  0.00    +0.149 C 
BRANCH   5   6
ATOM      6  C   VAL A   8      33.827  -4.296  17.760  0.00  0.00    +0.241 C 
ATOM      7  O   VAL A   8      33.312  -4.973  18.658  0.00  0.00    -0.273 OA
ATOM      8  N   GLN A   9      33.134  -3.437  17.018  0.00  0.00    -0.297 N 
ATOM      9  H   GLN A   9      33.599  -2.949  16.226  0.00  0.00    +0.150 HD
BRANCH   8  10
ATOM     10  CA  GLN A   9      31.727  -3.171  17.303  0.00  0.00    +0.149 C 
BRANCH  10  11
ATOM     11  C   GLN A   9      30.678  -3.978  16.558  0.00  0.00    +0.241 C 
ATOM     12  O   GLN A   9      29.684  -4.413  17.157  0.00  0.00    -0.273 OA
ATOM     13  N   VAL A  10      30.878  -4.184  15.259  0.00  0.00    -0.297 N 
ATOM     14  H   VAL A  10      31.737  -3.817  14.802  0.00  0.00    +0.150 HD
BRANCH  13  15
ATOM     15  CA  VAL A  10      29.895  -4.924  14.474  0.00  0.00    +0.149 C 
BRANCH  15  16
ATOM     16  C   VAL A  10      29.602  -6.324  15.003  0.00  0.00    +0.244 C 
ATOM     17  N   PRO A  11      30.644  -7.076  15.409  0.00  0.00    -0.272 N 
ATOM     18  CA  PRO A  11      30.415  -8.435  15.926  0.00  0.00    +0.152 C 
ATOM     19  CB  PRO A  11      31.836  -8.965  16.166  0.00  0.00    +0.031 C 
ATOM     20  CG  PRO A  11      32.684  -8.146  15.217  0.00  0.00    +0.024 C 
ATOM     21  CD  PRO A  11      32.087  -6.775  15.357  0.00  0.00    +0.094 C 
ATOM     22  O   VAL A  10      28.442  -6.732  15.051  0.00  0.00    -0.273 OA
BRANCH  18  23
ATOM     23  C   PRO A  11      29.553  -8.469  17.197  0.00  0.00    +0.241 C 
ATOM     24  N   LYS A  12      29.638  -7.422  18.020  0.00  0.00    -0.297 N 
ATOM     25  H   LYS A  12      30.280  -6.638  17.784  0.00  0.00    +0.150 HD
ATOM     26  O   PRO A  11      28.822  -9.434  17.424  0.00  0.00    -0.273 OA
BRANCH  24  27
ATOM     27  CA  LYS A  12      28.845  -7.356  19.249  0.00  0.00    +0.149 C 
BRANCH  27  28
ATOM     28  C   LYS A  12      27.361  -7.266  18.890  0.00  0.00    +0.241 C 
ATOM     29  O   LYS A  12      26.506  -7.807  19.594  0.00  0.00    -0.273 OA
ATOM     30  N   ILE A  13      27.069  -6.576  17.791  0.00  0.00    -0.298 N 
ATOM     31  H   ILE A  13      27.843  -6.138  17.252  0.00  0.00    +0.150 HD
BRANCH  30  32
ATOM     32  CA  ILE A  13      25.699  -6.414  17.317  0.00  0.00    +0.137 C 
BRANCH  32  33
ATOM     33  CB  ILE A  13      25.608  -5.282  16.269  0.00  0.00    +0.026 C 
ATOM     34  CG2 ILE A  13      24.236  -5.299  15.590  0.00  0.00    +0.002 C 
BRANCH  33  35
ATOM     35  CG1 ILE A  13      25.914  -3.936  16.939  0.00  0.00    +0.002 C 
ATOM     36  CD1 ILE A  13      25.894  -2.749  15.991  0.00  0.00    +0.000 C 
ENDBRANCH  33  35
ENDBRANCH  32  33
BRANCH  32  37
ATOM     37  C   ILE A  13      25.184  -7.703  16.680  0.00  0.00    +0.227 C 
ATOM     38  O   ILE A  13      24.097  -8.171  17.002  0.00  0.00    -0.286 OA
ENDBRANCH  32  37
ENDBRANCH  30  32
ENDBRANCH  27  28
BRANCH  27  39
ATOM     39  CB  LYS A  12      29.235  -6.136  20.096  0.00  0.00    +0.029 C 
BRANCH  39  40
ATOM     40  CG  LYS A  12      30.680  -6.135  20.569  0.00  0.00    +0.000 C 
BRANCH  40  41
ATOM     41  CD  LYS A  12      30.992  -4.903  21.403  0.00  0.00    -0.024 C 
BRANCH  41  42
ATOM     42  CE  LYS A  12      32.491  -4.803  21.714  0.00  0.00    -0.086 C 
BRANCH  42  43
ATOM     43  NZ  LYS A  12      32.819  -3.577  22.504  0.00  0.00    +0.380 N 
ATOM     44  HZ1 LYS A  12      32.301  -3.598  23.405  0.00  0.00    -0.089 HD
ATOM     45  HZ2 LYS A  12      33.842  -3.550  22.691  0.00  0.00    -0.089 HD
ATOM     46  HZ3 LYS A  12      32.542  -2.733  21.963  0.00  0.00    -0.089 HD
ENDBRANCH  42  43
ENDBRANCH  41  42
ENDBRANCH  40  41
ENDBRANCH  39  40
ENDBRANCH  27  39
ENDBRANCH  24  27
ENDBRANCH  18  23
ENDBRANCH  15  16
BRANCH  15  47
ATOM     47  CB  VAL A  10      30.308  -5.027  12.989  0.00  0.00    +0.027 C 
ATOM     48  CG2 VAL A  10      30.433  -3.629  12.394  0.00  0.00    +0.002 C 
ATOM     49  CG1 VAL A  10      29.273  -5.838  12.215  0.00  0.00    +0.002 C 
ENDBRANCH  15  47
ENDBRANCH  13  15
ENDBRANCH  10  11
BRANCH  10  50
ATOM     50  CB  GLN A   9      31.454  -1.681  17.109  0.00  0.00    +0.039 C 
BRANCH  50  51
ATOM     51  CG  GLN A   9      32.387  -0.774  17.903  0.00  0.00    +0.087 C 
BRANCH  51  52
ATOM     52  CD  GLN A   9      32.131  -0.811  19.397  0.00  0.00    +0.219 C 
ATOM     53  NE2 GLN A   9      32.050   0.366  20.020  0.00  0.00    -0.329 N 
ATOM     54 HE21 GLN A   9      31.885   0.401  21.046  0.00  0.00    +0.145 HD
ATOM     55 HE22 GLN A   9      32.152   1.249  19.479  0.00  0.00    +0.145 HD
ATOM     56  OE1 GLN A   9      32.018  -1.883  19.988  0.00  0.00    -0.275 OA
ENDBRANCH  51  52
ENDBRANCH  50  51
ENDBRANCH  10  50
ENDBRANCH   8  10
ENDBRANCH   5   6
BRANCH   5  57
ATOM     57  CB  VAL A   8      36.087  -3.299  18.154  0.00  0.00    +0.027 C 
ATOM     58  CG2 VAL A   8      35.664  -3.209  19.621  0.00  0.00    +0.002 C 
ATOM     59  CG1 VAL A   8      37.584  -3.546  18.067  0.00  0.00    +0.002 C 
ENDBRANCH   5  57
ENDBRANCH   2   5
BRANCH   1  60
ATOM     60  CA  SER A   7      36.029  -5.526  13.849  0.00  0.00    +0.178 C 
BRANCH  60  63
ATOM     61  C   ILE A   6      34.216  -4.069  13.124  0.00  0.00    +0.241 C 
ATOM     62  O   ILE A   6      33.363  -4.792  13.635  0.00  0.00    -0.273 OA
ATOM     63  N   SER A   7      35.519  -4.330  13.190  0.00  0.00    -0.295 N 
ATOM     64  H   SER A   7      36.191  -3.663  12.760  0.00  0.00    +0.150 HD
BRANCH  61  65
ATOM     65  CA  ILE A   6      33.821  -2.805  12.361  0.00  0.00    +0.149 C 
BRANCH  65  68
ATOM     66  C   ILE A   5      34.521  -1.216  14.071  0.00  0.00    +0.241 C 
ATOM     67  O   ILE A   5      33.768  -1.715  14.905  0.00  0.00    -0.273 OA
ATOM     68  N   ILE A   6      34.607  -1.663  12.820  0.00  0.00    -0.297 N 
ATOM     69  H   ILE A   6      35.249  -1.188  12.154  0.00  0.00    +0.150 HD
BRANCH  66  70
ATOM     70  CA  ILE A   5      35.415  -0.037  14.442  0.00  0.00    +0.149 C 
BRANCH  70  73
ATOM     71  C   GLU A   4      37.551  -1.138  14.151  0.00  0.00    +0.241 C 
ATOM     72  O   GLU A   4      37.248  -2.004  14.962  0.00  0.00    -0.273 OA
ATOM     73  N   ILE A   5      36.734  -0.146  13.829  0.00  0.00    -0.297 N 
ATOM     74  H   ILE A   5      37.037   0.563  13.131  0.00  0.00    +0.150 HD
BRANCH  71  75
ATOM     75  CA  GLU A   4      38.910  -1.153  13.464  0.00  0.00    +0.149 C 
BRANCH  75  77
ATOM     76  C   ALA A   3      38.069  -1.714  11.250  0.00  0.00    +0.241 C 
ATOM     77  N   GLU A   4      38.773  -0.908  12.036  0.00  0.00    -0.297 N 
ATOM     78  H   GLU A   4      39.240  -0.078  11.619  0.00  0.00    +0.150 HD
ATOM     79  O   ALA A   3      37.477  -2.713  11.662  0.00  0.00    -0.273 OA
BRANCH  76  80
ATOM     80  CA  ALA A   3      38.027  -1.324   9.782  0.00  0.00    +0.149 C 
ATOM     81  CB  ALA A   3      39.369  -1.643   9.125  0.00  0.00    +0.031 C 
BRANCH  80  84
ATOM     82  C   MET A   2      36.575   0.609  10.096  0.00  0.00    +0.241 C 
ATOM     83  O   MET A   2      35.716  -0.075  10.648  0.00  0.00    -0.273 OA
ATOM     84  N   ALA A   3      37.721   0.101   9.648  0.00  0.00    -0.297 N 
ATOM     85  H   ALA A   3      38.413   0.730   9.193  0.00  0.00    +0.150 HD
BRANCH  82  86
ATOM     86  CA  MET A   2      36.355   2.110   9.905  0.00  0.00    +0.149 C 
BRANCH  86  89
ATOM     87  C   MET A   1      38.177   2.936  11.269  0.00  0.00    +0.238 C 
ATOM     88  O   MET A   1      37.757   2.337  12.260  0.00  0.00    -0.274 OA
ATOM     89  N   MET A   2      37.571   2.890  10.090  0.00  0.00    -0.297 N 
ATOM     90  H   MET A   2      37.969   3.418   9.287  0.00  0.00    +0.150 HD
BRANCH  87  91
ATOM     91  CA  MET A   1      39.434   3.789  11.354  0.00  0.00    +0.146 C 
BRANCH  91  92
ATOM     92  N   MET A   1      40.347   3.586  10.235  0.00  0.00    -0.238 NA
ATOM     93  H   MET A   1      40.473   4.347   9.537  0.00  0.00    +0.142 HD
ENDBRANCH  91  92
BRANCH  91  94
ATOM     94  CB  MET A   1      39.031   5.260  11.450  0.00  0.00    +0.038 C 
BRANCH  94  95
ATOM     95  CG  MET A   1      38.012   5.544  12.543  0.00  0.00    +0.060 C 
BRANCH  95  96
ATOM     96  SD  MET A   1      37.399   7.243  12.492  0.00  0.00    -0.139 S 
ATOM     97  CE  MET A   1      38.891   8.139  13.043  0.00  0.00    +0.069 C 
ENDBRANCH  95  96
ENDBRANCH  94  95
ENDBRANCH  91  94
ENDBRANCH  87  91
ENDBRANCH  86  89
BRANCH  86  98
ATOM     98  CB  MET A   2      35.762   2.368   8.521  0.00  0.00    +0.041 C 
BRANCH  98  99
ATOM     99  CG  MET A   2      34.545   1.515   8.229  0.00  0.00    +0.060 C 
BRANCH  99 100
ATOM    100  SD  MET A   2      33.938   1.718   6.556  0.00  0.00    -0.139 S 
ATOM    101  CE  MET A   2      32.847   3.139   6.790  0.00  0.00    +0.069 C 
ENDBRANCH  99 100
ENDBRANCH  98  99
ENDBRANCH  86  98
ENDBRANCH  82  86
ENDBRANCH  80  84
ENDBRANCH  76  80
ENDBRANCH  75  77
BRANCH  75 102
ATOM    102  CB  GLU A   4      39.804  -0.084  14.101  0.00  0.00    +0.041 C 
BRANCH 102 103
ATOM    103  CG  GLU A   4      40.049  -0.306  15.580  0.00  0.00    +0.116 C 
BRANCH 103 104
ATOM    104  CD  GLU A   4      40.531   0.937  16.286  0.00  0.00    +0.365 C 
ATOM    105  OE2 GLU A   4      39.958   1.269  17.343  0.00  0.00    -0.246 OA
ATOM    106  OE1 GLU A   4      41.482   1.580  15.793  0.00  0.00    -0.246 OA
ENDBRANCH 103 104
ENDBRANCH 102 103
ENDBRANCH  75 102
ENDBRANCH  71  75
ENDBRANCH  70  73
BRANCH  70 107
ATOM    107  CB  ILE A   5      34.743   1.281  14.039  0.00  0.00    +0.027 C 
ATOM    108  CG2 ILE A   5      33.330   1.348  14.607  0.00  0.00    +0.002 C 
BRANCH 107 109
ATOM    109  CG1 ILE A   5      35.587   2.451  14.556  0.00  0.00    +0.002 C 
ATOM    110  CD1 ILE A   5      35.094   3.812  14.120  0.00  0.00    +0.000 C 
ENDBRANCH 107 109
ENDBRANCH  70 107
ENDBRANCH  66  70
ENDBRANCH  65  68
BRANCH  65 111
ATOM    111  CB  ILE A   6      34.047  -3.098  10.848  0.00  0.00    +0.027 C 
ATOM    112  CG2 ILE A   6      33.388  -4.424  10.473  0.00  0.00    +0.002 C 
BRANCH 111 113
ATOM    113  CG1 ILE A   6      33.466  -1.975   9.990  0.00  0.00    +0.002 C 
ATOM    114  CD1 ILE A   6      33.846  -2.065   8.521  0.00  0.00    +0.000 C 
ENDBRANCH 111 113
ENDBRANCH  65 111
ENDBRANCH  61  65
ENDBRANCH  60  63
BRANCH  60 115
ATOM    115  CB  SER A   7      37.547  -5.655  13.622  0.00  0.00    +0.166 C 
BRANCH 115 116
ATOM    116  OG  SER A   7      38.281  -4.706  14.379  0.00  0.00    -0.380 OA
ATOM    117  H   SER A   7      38.006  -3.792  14.117  0.00  0.00    +0.211 HD
ENDBRANCH 115 116
ENDBRANCH  60 115
ENDBRANCH   1  60
TORSDOF 52
REMARK  Name = ../refined-set-2016/3b68/3b68_pocket.pdb
REMARK  284 active torsions:
REMARK  status: ('A' for Active; 'I' for Inactive)
REMARK    1  A    between atoms: _1  and  _3
REMARK    2  A    between atoms: _3  and  _4
REMARK    3  A    between atoms: _3  and  _6
REMARK    4  A    between atoms: _9  and  _11
REMARK    5  A    between atoms: _11  and  _12
REMARK    6  A    between atoms: _15  and  _17
REMARK    7  A    between atoms: _17  and  _18
REMARK    8  A    between atoms: _17  and  _20
REMARK    9  A    between atoms: _20  and  _21
REMARK   10  A    between atoms: _24  and  _26
REMARK   11  A    between atoms: _26  and  _27
REMARK   12  A    between atoms: _26  and  _29
REMARK   13  A    between atoms: _29  and  _30
REMARK   14  A    between atoms: _33  and  _35
REMARK   15  A    between atoms: _35  and  _36
REMARK   16  A    between atoms: _35  and  _38
REMARK   17  A    between atoms: _38  and  _39
REMARK   18  A    between atoms: _41  and  _43
REMARK   19  A    between atoms: _43  and  _44
REMARK   20  A    between atoms: _43  and  _46
REMARK   21  A    between atoms: _46  and  _47
REMARK   22  A    between atoms: _49  and  _51
REMARK   23  A    between atoms: _51  and  _52
REMARK   24  A    between atoms: _51  and  _54
REMARK   25  A    between atoms: _54  and  _55
REMARK   26  A    between atoms: _58  and  _60
REMARK   27  A    between atoms: _60  and  _61
REMARK   28  A    between atoms: _60  and  _63
REMARK   29  A    between atoms: _63  and  _64
REMARK   30  A    between atoms: _69  and  _71
REMARK   31  A    between atoms: _71  and  _72
REMARK   32  A    between atoms: _71  and  _74
REMARK   33  A    between atoms: _74  and  _75
REMARK   34  A    between atoms: _75  and  _76
REMARK   35  A    between atoms: _79  and  _81
REMARK   36  A    between atoms: _81  and  _82
REMARK   37  A    between atoms: _81  and  _84
REMARK   38  A    between atoms: _84  and  _85
REMARK   39  A    between atoms: _88  and  _90
REMARK   40  A    between atoms: _90  and  _91
REMARK   41  A    between atoms: _93  and  _95
REMARK   42  A    between atoms: _95  and  _96
REMARK   43  A    between atoms: _95  and  _98
REMARK   44  A    between atoms: _98  and  _99
REMARK   45  A    between atoms: _99  and  _100
REMARK   46  A    between atoms: _103  and  _105
REMARK   47  A    between atoms: _105  and  _106
REMARK   48  A    between atoms: _105  and  _108
REMARK   49  A    between atoms: _108  and  _109
REMARK   50  A    between atoms: _109  and  _110
REMARK   51  A    between atoms: _110  and  _111
REMARK   52  A    between atoms: _120  and  _122
REMARK   53  A    between atoms: _122  and  _123
REMARK   54  A    between atoms: _122  and  _125
REMARK   55  A    between atoms: _125  and  _126
REMARK   56  A    between atoms: _126  and  _127
REMARK   57  A    between atoms: _132  and  _134
REMARK   58  A    between atoms: _134  and  _135
REMARK   59  A    between atoms: _134  and  _137
REMARK   60  A    between atoms: _137  and  _138
REMARK   61  A    between atoms: _141  and  _143
REMARK   62  A    between atoms: _143  and  _144
REMARK   63  A    between atoms: _147  and  _149
REMARK   64  A    between atoms: _149  and  _150
REMARK   65  A    between atoms: _149  and  _152
REMARK   66  A    between atoms: _152  and  _153
REMARK   67  A    between atoms: _156  and  _158
REMARK   68  A    between atoms: _158  and  _159
REMARK   69  A    between atoms: _158  and  _161
REMARK   70  A    between atoms: _161  and  _162
REMARK   71  A    between atoms: _162  and  _163
REMARK   72  A    between atoms: _168  and  _170
REMARK   73  A    between atoms: _170  and  _171
REMARK   74  A    between atoms: _170  and  _173
REMARK   75  A    between atoms: _173  and  _174
REMARK   76  A    between atoms: _179  and  _180
REMARK   77  A    between atoms: _182  and  _184
REMARK   78  A    between atoms: _184  and  _185
REMARK   79  A    between atoms: _184  and  _187
REMARK   80  A    between atoms: _187  and  _188
REMARK   81  A    between atoms: _190  and  _192
REMARK   82  A    between atoms: _192  and  _193
REMARK   83  A    between atoms: _192  and  _195
REMARK   84  A    between atoms: _195  and  _196
REMARK   85  A    between atoms: _206  and  _208
REMARK   86  A    between atoms: _208  and  _209
REMARK   87  A    between atoms: _208  and  _211
REMARK   88  A    between atoms: _211  and  _212
REMARK   89  A    between atoms: _212  and  _213
REMARK   90  A    between atoms: _215  and  _217
REMARK   91  A    between atoms: _217  and  _218
REMARK   92  A    between atoms: _220  and  _222
REMARK   93  A    between atoms: _222  and  _223
REMARK   94  A    between atoms: _222  and  _225
REMARK   95  A    between atoms: _225  and  _226
REMARK   96  A    between atoms: _229  and  _231
REMARK   97  A    between atoms: _231  and  _232
REMARK   98  A    between atoms: _231  and  _234
REMARK   99  A    between atoms: _234  and  _235
REMARK  100  A    between atoms: _235  and  _236
REMARK  101  A    between atoms: _238  and  _240
REMARK  102  A    between atoms: _240  and  _241
REMARK  103  A    between atoms: _240  and  _243
REMARK  104  A    between atoms: _246  and  _248
REMARK  105  A    between atoms: _248  and  _249
REMARK  106  A    between atoms: _248  and  _251
REMARK  107  A    between atoms: _251  and  _252
REMARK  108  A    between atoms: _258  and  _260
REMARK  109  A    between atoms: _260  and  _261
REMARK  110  A    between atoms: _264  and  _266
REMARK  111  A    between atoms: _266  and  _267
REMARK  112  A    between atoms: _266  and  _269
REMARK  113  A    between atoms: _269  and  _270
REMARK  114  A    between atoms: _270  and  _271
REMARK  115  A    between atoms: _273  and  _275
REMARK  116  A    between atoms: _275  and  _276
REMARK  117  A    between atoms: _278  and  _280
REMARK  118  A    between atoms: _280  and  _281
REMARK  119  A    between atoms: _280  and  _283
REMARK  120  A    between atoms: _283  and  _284
REMARK  121  A    between atoms: _294  and  _296
REMARK  122  A    between atoms: _296  and  _297
REMARK  123  A    between atoms: _296  and  _299
REMARK  124  A    between atoms: _299  and  _300
REMARK  125  A    between atoms: _300  and  _301
REMARK  126  A    between atoms: _301  and  _302
REMARK  127  A    between atoms: _311  and  _313
REMARK  128  A    between atoms: _313  and  _314
REMARK  129  A    between atoms: _313  and  _316
REMARK  130  A    between atoms: _316  and  _317
REMARK  131  A    between atoms: _319  and  _321
REMARK  132  A    between atoms: _321  and  _322
REMARK  133  A    between atoms: _321  and  _324
REMARK  134  A    between atoms: _324  and  _325
REMARK  135  A    between atoms: _328  and  _330
REMARK  136  A    between atoms: _330  and  _331
REMARK  137  A    between atoms: _330  and  _333
REMARK  138  A    between atoms: _333  and  _334
REMARK  139  A    between atoms: _339  and  _340
REMARK  140  A    between atoms: _342  and  _344
REMARK  141  A    between atoms: _344  and  _345
REMARK  142  A    between atoms: _344  and  _347
REMARK  143  A    between atoms: _347  and  _348
REMARK  144  A    between atoms: _354  and  _356
REMARK  145  A    between atoms: _356  and  _357
REMARK  146  A    between atoms: _361  and  _362
REMARK  147  A    between atoms: _367  and  _369
REMARK  148  A    between atoms: _369  and  _370
REMARK  149  A    between atoms: _369  and  _372
REMARK  150  A    between atoms: _372  and  _373
REMARK  151  A    between atoms: _376  and  _378
REMARK  152  A    between atoms: _378  and  _379
REMARK  153  A    between atoms: _378  and  _381
REMARK  154  A    between atoms: _381  and  _382
REMARK  155  A    between atoms: _384  and  _386
REMARK  156  A    between atoms: _386  and  _387
REMARK  157  A    between atoms: _386  and  _389
REMARK  158  A    between atoms: _389  and  _390
REMARK  159  A    between atoms: _390  and  _391
REMARK  160  A    between atoms: _393  and  _395
REMARK  161  A    between atoms: _395  and  _396
REMARK  162  A    between atoms: _395  and  _398
REMARK  163  A    between atoms: _398  and  _399
REMARK  164  A    between atoms: _399  and  _400
REMARK  165  A    between atoms: _405  and  _407
REMARK  166  A    between atoms: _407  and  _408
REMARK  167  A    between atoms: _407  and  _410
REMARK  168  A    between atoms: _412  and  _414
REMARK  169  A    between atoms: _414  and  _415
REMARK  170  A    between atoms: _414  and  _417
REMARK  171  A    between atoms: _417  and  _418
REMARK  172  A    between atoms: _418  and  _419
REMARK  173  A    between atoms: _421  and  _423
REMARK  174  A    between atoms: _423  and  _424
REMARK  175  A    between atoms: _423  and  _426
REMARK  176  A    between atoms: _426  and  _427
REMARK  177  A    between atoms: _430  and  _432
REMARK  178  A    between atoms: _432  and  _433
REMARK  179  A    between atoms: _432  and  _435
REMARK  180  A    between atoms: _435  and  _436
REMARK  181  A    between atoms: _439  and  _441
REMARK  182  A    between atoms: _441  and  _442
REMARK  183  A    between atoms: _441  and  _444
REMARK  184  A    between atoms: _447  and  _449
REMARK  185  A    between atoms: _449  and  _450
REMARK  186  A    between atoms: _449  and  _452
REMARK  187  A    between atoms: _452  and  _453
REMARK  188  A    between atoms: _456  and  _458
REMARK  189  A    between atoms: _458  and  _459
REMARK  190  A    between atoms: _462  and  _464
REMARK  191  A    between atoms: _464  and  _465
REMARK  192  A    between atoms: _464  and  _467
REMARK  193  A    between atoms: _467  and  _468
REMARK  194  A    between atoms: _471  and  _473
REMARK  195  A    between atoms: _473  and  _474
REMARK  196  A    between atoms: _473  and  _476
REMARK  197  A    between atoms: _476  and  _477
REMARK  198  A    between atoms: _482  and  _484
REMARK  199  A    between atoms: _484  and  _485
REMARK  200  A    between atoms: _484  and  _487
REMARK  201  A    between atoms: _487  and  _488
REMARK  202  A    between atoms: _494  and  _496
REMARK  203  A    between atoms: _496  and  _497
REMARK  204  A    between atoms: _496  and  _499
REMARK  205  A    between atoms: _499  and  _500
REMARK  206  A    between atoms: _503  and  _505
REMARK  207  A    between atoms: _505  and  _506
REMARK  208  A    between atoms: _505  and  _508
REMARK  209  A    between atoms: _508  and  _509
REMARK  210  A    between atoms: _515  and  _517
REMARK  211  A    between atoms: _517  and  _518
REMARK  212  A    between atoms: _517  and  _520
REMARK  213  A    between atoms: _520  and  _521
REMARK  214  A    between atoms: _524  and  _526
REMARK  215  A    between atoms: _526  and  _527
REMARK  216  A    between atoms: _526  and  _529
REMARK  217  A    between atoms: _529  and  _530
REMARK  218  A    between atoms: _533  and  _535
REMARK  219  A    between atoms: _535  and  _536
REMARK  220  A    between atoms: _535  and  _538
REMARK  221  A    between atoms: _541  and  _543
REMARK  222  A    between atoms: _543  and  _544
REMARK  223  A    between atoms: _543  and  _546
REMARK  224  A    between atoms: _546  and  _547
REMARK  225  A    between atoms: _550  and  _552
REMARK  226  A    between atoms: _552  and  _553
REMARK  227  A    between atoms: _552  and  _555
REMARK  228  A    between atoms: _555  and  _556
REMARK  229  A    between atoms: _563  and  _564
REMARK  230  A    between atoms: _569  and  _571
REMARK  231  A    between atoms: _571  and  _572
REMARK  232  A    between atoms: _571  and  _574
REMARK  233  A    between atoms: _574  and  _575
REMARK  234  A    between atoms: _575  and  _576
REMARK  235  A    between atoms: _578  and  _580
REMARK  236  A    between atoms: _580  and  _581
REMARK  237  A    between atoms: _580  and  _583
REMARK  238  A    between atoms: _583  and  _584
REMARK  239  A    between atoms: _584  and  _585
REMARK  240  A    between atoms: _587  and  _589
REMARK  241  A    between atoms: _589  and  _590
REMARK  242  A    between atoms: _593  and  _595
REMARK  243  A    between atoms: _595  and  _596
REMARK  244  A    between atoms: _595  and  _598
REMARK  245  A    between atoms: _598  and  _599
REMARK  246  A    between atoms: _599  and  _600
REMARK  247  A    between atoms: _603  and  _605
REMARK  248  A    between atoms: _605  and  _606
REMARK  249  A    between atoms: _605  and  _608
REMARK  250  A    between atoms: _608  and  _609
REMARK  251  A    between atoms: _612  and  _614
REMARK  252  A    between atoms: _614  and  _615
REMARK  253  A    between atoms: _614  and  _617
REMARK  254  A    between atoms: _617  and  _618
REMARK  255  A    between atoms: _621  and  _623
REMARK  256  A    between atoms: _623  and  _624
REMARK  257  A    between atoms: _623  and  _626
REMARK  258  A    between atoms: _626  and  _627
REMARK  259  A    between atoms: _629  and  _631
REMARK  260  A    between atoms: _631  and  _632
REMARK  261  A    between atoms: _631  and  _634
REMARK  262  A    between atoms: _637  and  _639
REMARK  263  A    between atoms: _639  and  _640
REMARK  264  A    between atoms: _639  and  _642
REMARK  265  A    between atoms: _642  and  _643
REMARK  266  A    between atoms: _643  and  _644
REMARK  267  A    between atoms: _649  and  _651
REMARK  268  A    between atoms: _651  and  _652
REMARK  269  A    between atoms: _651  and  _654
REMARK  270  A    between atoms: _658  and  _659
REMARK  271  A    between atoms: _664  and  _666
REMARK  272  A    between atoms: _666  and  _667
REMARK  273  A    between atoms: _666  and  _669
REMARK  274  A    between atoms: _669  and  _670
REMARK  275  A    between atoms: _670  and  _671
REMARK  276  A    between atoms: _671  and  _672
REMARK  277  A    between atoms: _672  and  _673
REMARK  278  A    between atoms: _677  and  _679
REMARK  279  A    between atoms: _679  and  _680
REMARK  280  A    between atoms: _679  and  _682
REMARK  281  A    between atoms: _682  and  _683
REMARK  282  A    between atoms: _686  and  _688
REMARK  283  A    between atoms: _688  and  _689
REMARK  284  A    between atoms: _688  and  _691
REMARK                            x       y       z     vdW  Elec       q    Type
REMARK                         _______ _______ _______ _____ _____    ______ ____
ROOT
ATOM      1  CA  VAL A   1      24.316  -5.145  21.496  0.00  0.00    +0.133 C 
ENDROOT
BRANCH   1   2
ATOM      2  CB  VAL A   1      25.324  -4.203  20.817  0.00  0.00    +0.023 C 
ATOM      3  CG2 VAL A   1      26.562  -4.077  21.685  0.00  0.00    +0.002 C 
ATOM      4  CG1 VAL A   1      24.693  -2.836  20.584  0.00  0.00    +0.002 C 
ENDBRANCH   1   2
BRANCH   1   5
ATOM      5  N   VAL A   1      24.861  -6.488  21.615  0.00  0.00    -0.239 NA
ATOM      6  H   VAL A   1      25.238  -6.954  20.765  0.00  0.00    +0.142 HD
ENDBRANCH   1   5
BRANCH   1   7
ATOM      7  C   VAL A   1      23.057  -5.265  20.650  0.00  0.00    +0.224 C 
ATOM      8  O   VAL A   1      23.104  -5.765  19.527  0.00  0.00    -0.287 OA
ENDBRANCH   1   7
TORSDOF 3
REMARK  Name = ../refined-set-2016/3b68/3b68_pocket.pdb
REMARK  284 active torsions:
REMARK  status: ('A' for Active; 'I' for Inactive)
REMARK    1  A    between atoms: _1  and  _3
REMARK    2  A    between atoms: _3  and  _4
REMARK    3  A    between atoms: _3  and  _6
REMARK    4  A    between atoms: _9  and  _11
REMARK    5  A    between atoms: _11  and  _12
REMARK    6  A    between atoms: _15  and  _17
REMARK    7  A    between atoms: _17  and  _18
REMARK    8  A    between atoms: _17  and  _20
REMARK    9  A    between atoms: _20  and  _21
REMARK   10  A    between atoms: _24  and  _26
REMARK   11  A    between atoms: _26  and  _27
REMARK   12  A    between atoms: _26  and  _29
REMARK   13  A    between atoms: _29  and  _30
REMARK   14  A    between atoms: _33  and  _35
REMARK   15  A    between atoms: _35  and  _36
REMARK   16  A    between atoms: _35  and  _38
REMARK   17  A    between atoms: _38  and  _39
REMARK   18  A    between atoms: _41  and  _43
REMARK   19  A    between atoms: _43  and  _44
REMARK   20  A    between atoms: _43  and  _46
REMARK   21  A    between atoms: _46  and  _47
REMARK   22  A    between atoms: _49  and  _51
REMARK   23  A    between atoms: _51  and  _52
REMARK   24  A    between atoms: _51  and  _54
REMARK   25  A    between atoms: _54  and  _55
REMARK   26  A    between atoms: _58  and  _60
REMARK   27  A    between atoms: _60  and  _61
REMARK   28  A    between atoms: _60  and  _63
REMARK   29  A    between atoms: _63  and  _64
REMARK   30  A    between atoms: _69  and  _71
REMARK   31  A    between atoms: _71  and  _72
REMARK   32  A    between atoms: _71  and  _74
REMARK   33  A    between atoms: _74  and  _75
REMARK   34  A    between atoms: _75  and  _76
REMARK   35  A    between atoms: _79  and  _81
REMARK   36  A    between atoms: _81  and  _82
REMARK   37  A    between atoms: _81  and  _84
REMARK   38  A    between atoms: _84  and  _85
REMARK   39  A    between atoms: _88  and  _90
REMARK   40  A    between atoms: _90  and  _91
REMARK   41  A    between atoms: _93  and  _95
REMARK   42  A    between atoms: _95  and  _96
REMARK   43  A    between atoms: _95  and  _98
REMARK   44  A    between atoms: _98  and  _99
REMARK   45  A    between atoms: _99  and  _100
REMARK   46  A    between atoms: _103  and  _105
REMARK   47  A    between atoms: _105  and  _106
REMARK   48  A    between atoms: _105  and  _108
REMARK   49  A    between atoms: _108  and  _109
REMARK   50  A    between atoms: _109  and  _110
REMARK   51  A    between atoms: _110  and  _111
REMARK   52  A    between atoms: _120  and  _122
REMARK   53  A    between atoms: _122  and  _123
REMARK   54  A    between atoms: _122  and  _125
REMARK   55  A    between atoms: _125  and  _126
REMARK   56  A    between atoms: _126  and  _127
REMARK   57  A    between atoms: _132  and  _134
REMARK   58  A    between atoms: _134  and  _135
REMARK   59  A    between atoms: _134  and  _137
REMARK   60  A    between atoms: _137  and  _138
REMARK   61  A    between atoms: _141  and  _143
REMARK   62  A    between atoms: _143  and  _144
REMARK   63  A    between atoms: _147  and  _149
REMARK   64  A    between atoms: _149  and  _150
REMARK   65  A    between atoms: _149  and  _152
REMARK   66  A    between atoms: _152  and  _153
REMARK   67  A    between atoms: _156  and  _158
REMARK   68  A    between atoms: _158  and  _159
REMARK   69  A    between atoms: _158  and  _161
REMARK   70  A    between atoms: _161  and  _162
REMARK   71  A    between atoms: _162  and  _163
REMARK   72  A    between atoms: _168  and  _170
REMARK   73  A    between atoms: _170  and  _171
REMARK   74  A    between atoms: _170  and  _173
REMARK   75  A    between atoms: _173  and  _174
REMARK   76  A    between atoms: _179  and  _180
REMARK   77  A    between atoms: _182  and  _184
REMARK   78  A    between atoms: _184  and  _185
REMARK   79  A    between atoms: _184  and  _187
REMARK   80  A    between atoms: _187  and  _188
REMARK   81  A    between atoms: _190  and  _192
REMARK   82  A    between atoms: _192  and  _193
REMARK   83  A    between atoms: _192  and  _195
REMARK   84  A    between atoms: _195  and  _196
REMARK   85  A    between atoms: _206  and  _208
REMARK   86  A    between atoms: _208  and  _209
REMARK   87  A    between atoms: _208  and  _211
REMARK   88  A    between atoms: _211  and  _212
REMARK   89  A    between atoms: _212  and  _213
REMARK   90  A    between atoms: _215  and  _217
REMARK   91  A    between atoms: _217  and  _218
REMARK   92  A    between atoms: _220  and  _222
REMARK   93  A    between atoms: _222  and  _223
REMARK   94  A    between atoms: _222  and  _225
REMARK   95  A    between atoms: _225  and  _226
REMARK   96  A    between atoms: _229  and  _231
REMARK   97  A    between atoms: _231  and  _232
REMARK   98  A    between atoms: _231  and  _234
REMARK   99  A    between atoms: _234  and  _235
REMARK  100  A    between atoms: _235  and  _236
REMARK  101  A    between atoms: _238  and  _240
REMARK  102  A    between atoms: _240  and  _241
REMARK  103  A    between atoms: _240  and  _243
REMARK  104  A    between atoms: _246  and  _248
REMARK  105  A    between atoms: _248  and  _249
REMARK  106  A    between atoms: _248  and  _251
REMARK  107  A    between atoms: _251  and  _252
REMARK  108  A    between atoms: _258  and  _260
REMARK  109  A    between atoms: _260  and  _261
REMARK  110  A    between atoms: _264  and  _266
REMARK  111  A    between atoms: _266  and  _267
REMARK  112  A    between atoms: _266  and  _269
REMARK  113  A    between atoms: _269  and  _270
REMARK  114  A    between atoms: _270  and  _271
REMARK  115  A    between atoms: _273  and  _275
REMARK  116  A    between atoms: _275  and  _276
REMARK  117  A    between atoms: _278  and  _280
REMARK  118  A    between atoms: _280  and  _281
REMARK  119  A    between atoms: _280  and  _283
REMARK  120  A    between atoms: _283  and  _284
REMARK  121  A    between atoms: _294  and  _296
REMARK  122  A    between atoms: _296  and  _297
REMARK  123  A    between atoms: _296  and  _299
REMARK  124  A    between atoms: _299  and  _300
REMARK  125  A    between atoms: _300  and  _301
REMARK  126  A    between atoms: _301  and  _302
REMARK  127  A    between atoms: _311  and  _313
REMARK  128  A    between atoms: _313  and  _314
REMARK  129  A    between atoms: _313  and  _316
REMARK  130  A    between atoms: _316  and  _317
REMARK  131  A    between atoms: _319  and  _321
REMARK  132  A    between atoms: _321  and  _322
REMARK  133  A    between atoms: _321  and  _324
REMARK  134  A    between atoms: _324  and  _325
REMARK  135  A    between atoms: _328  and  _330
REMARK  136  A    between atoms: _330  and  _331
REMARK  137  A    between atoms: _330  and  _333
REMARK  138  A    between atoms: _333  and  _334
REMARK  139  A    between atoms: _339  and  _340
REMARK  140  A    between atoms: _342  and  _344
REMARK  141  A    between atoms: _344  and  _345
REMARK  142  A    between atoms: _344  and  _347
REMARK  143  A    between atoms: _347  and  _348
REMARK  144  A    between atoms: _354  and  _356
REMARK  145  A    between atoms: _356  and  _357
REMARK  146  A    between atoms: _361  and  _362
REMARK  147  A    between atoms: _367  and  _369
REMARK  148  A    between atoms: _369  and  _370
REMARK  149  A    between atoms: _369  and  _372
REMARK  150  A    between atoms: _372  and  _373
REMARK  151  A    between atoms: _376  and  _378
REMARK  152  A    between atoms: _378  and  _379
REMARK  153  A    between atoms: _378  and  _381
REMARK  154  A    between atoms: _381  and  _382
REMARK  155  A    between atoms: _384  and  _386
REMARK  156  A    between atoms: _386  and  _387
REMARK  157  A    between atoms: _386  and  _389
REMARK  158  A    between atoms: _389  and  _390
REMARK  159  A    between atoms: _390  and  _391
REMARK  160  A    between atoms: _393  and  _395
REMARK  161  A    between atoms: _395  and  _396
REMARK  162  A    between atoms: _395  and  _398
REMARK  163  A    between atoms: _398  and  _399
REMARK  164  A    between atoms: _399  and  _400
REMARK  165  A    between atoms: _405  and  _407
REMARK  166  A    between atoms: _407  and  _408
REMARK  167  A    between atoms: _407  and  _410
REMARK  168  A    between atoms: _412  and  _414
REMARK  169  A    between atoms: _414  and  _415
REMARK  170  A    between atoms: _414  and  _417
REMARK  171  A    between atoms: _417  and  _418
REMARK  172  A    between atoms: _418  and  _419
REMARK  173  A    between atoms: _421  and  _423
REMARK  174  A    between atoms: _423  and  _424
REMARK  175  A    between atoms: _423  and  _426
REMARK  176  A    between atoms: _426  and  _427
REMARK  177  A    between atoms: _430  and  _432
REMARK  178  A    between atoms: _432  and  _433
REMARK  179  A    between atoms: _432  and  _435
REMARK  180  A    between atoms: _435  and  _436
REMARK  181  A    between atoms: _439  and  _441
REMARK  182  A    between atoms: _441  and  _442
REMARK  183  A    between atoms: _441  and  _444
REMARK  184  A    between atoms: _447  and  _449
REMARK  185  A    between atoms: _449  and  _450
REMARK  186  A    between atoms: _449  and  _452
REMARK  187  A    between atoms: _452  and  _453
REMARK  188  A    between atoms: _456  and  _458
REMARK  189  A    between atoms: _458  and  _459
REMARK  190  A    between atoms: _462  and  _464
REMARK  191  A    between atoms: _464  and  _465
REMARK  192  A    between atoms: _464  and  _467
REMARK  193  A    between atoms: _467  and  _468
REMARK  194  A    between atoms: _471  and  _473
REMARK  195  A    between atoms: _473  and  _474
REMARK  196  A    between atoms: _473  and  _476
REMARK  197  A    between atoms: _476  and  _477
REMARK  198  A    between atoms: _482  and  _484
REMARK  199  A    between atoms: _484  and  _485
REMARK  200  A    between atoms: _484  and  _487
REMARK  201  A    between atoms: _487  and  _488
REMARK  202  A    between atoms: _494  and  _496
REMARK  203  A    between atoms: _496  and  _497
REMARK  204  A    between atoms: _496  and  _499
REMARK  205  A    between atoms: _499  and  _500
REMARK  206  A    between atoms: _503  and  _505
REMARK  207  A    between atoms: _505  and  _506
REMARK  208  A    between atoms: _505  and  _508
REMARK  209  A    between atoms: _508  and  _509
REMARK  210  A    between atoms: _515  and  _517
REMARK  211  A    between atoms: _517  and  _518
REMARK  212  A    between atoms: _517  and  _520
REMARK  213  A    between atoms: _520  and  _521
REMARK  214  A    between atoms: _524  and  _526
REMARK  215  A    between atoms: _526  and  _527
REMARK  216  A    between atoms: _526  and  _529
REMARK  217  A    between atoms: _529  and  _530
REMARK  218  A    between atoms: _533  and  _535
REMARK  219  A    between atoms: _535  and  _536
REMARK  220  A    between atoms: _535  and  _538
REMARK  221  A    between atoms: _541  and  _543
REMARK  222  A    between atoms: _543  and  _544
REMARK  223  A    between atoms: _543  and  _546
REMARK  224  A    between atoms: _546  and  _547
REMARK  225  A    between atoms: _550  and  _552
REMARK  226  A    between atoms: _552  and  _553
REMARK  227  A    between atoms: _552  and  _555
REMARK  228  A    between atoms: _555  and  _556
REMARK  229  A    between atoms: _563  and  _564
REMARK  230  A    between atoms: _569  and  _571
REMARK  231  A    between atoms: _571  and  _572
REMARK  232  A    between atoms: _571  and  _574
REMARK  233  A    between atoms: _574  and  _575
REMARK  234  A    between atoms: _575  and  _576
REMARK  235  A    between atoms: _578  and  _580
REMARK  236  A    between atoms: _580  and  _581
REMARK  237  A    between atoms: _580  and  _583
REMARK  238  A    between atoms: _583  and  _584
REMARK  239  A    between atoms: _584  and  _585
REMARK  240  A    between atoms: _587  and  _589
REMARK  241  A    between atoms: _589  and  _590
REMARK  242  A    between atoms: _593  and  _595
REMARK  243  A    between atoms: _595  and  _596
REMARK  244  A    between atoms: _595  and  _598
REMARK  245  A    between atoms: _598  and  _599
REMARK  246  A    between atoms: _599  and  _600
REMARK  247  A    between atoms: _603  and  _605
REMARK  248  A    between atoms: _605  and  _606
REMARK  249  A    between atoms: _605  and  _608
REMARK  250  A    between atoms: _608  and  _609
REMARK  251  A    between atoms: _612  and  _614
REMARK  252  A    between atoms: _614  and  _615
REMARK  253  A    between atoms: _614  and  _617
REMARK  254  A    between atoms: _617  and  _618
REMARK  255  A    between atoms: _621  and  _623
REMARK  256  A    between atoms: _623  and  _624
REMARK  257  A    between atoms: _623  and  _626
REMARK  258  A    between atoms: _626  and  _627
REMARK  259  A    between atoms: _629  and  _631
REMARK  260  A    between atoms: _631  and  _632
REMARK  261  A    between atoms: _631  and  _634
REMARK  262  A    between atoms: _637  and  _639
REMARK  263  A    between atoms: _639  and  _640
REMARK  264  A    between atoms: _639  and  _642
REMARK  265  A    between atoms: _642  and  _643
REMARK  266  A    between atoms: _643  and  _644
REMARK  267  A    between atoms: _649  and  _651
REMARK  268  A    between atoms: _651  and  _652
REMARK  269  A    between atoms: _651  and  _654
REMARK  270  A    between atoms: _658  and  _659
REMARK  271  A    between atoms: _664  and  _666
REMARK  272  A    between atoms: _666  and  _667
REMARK  273  A    between atoms: _666  and  _669
REMARK  274  A    between atoms: _669  and  _670
REMARK  275  A    between atoms: _670  and  _671
REMARK  276  A    between atoms: _671  and  _672
REMARK  277  A    between atoms: _672  and  _673
REMARK  278  A    between atoms: _677  and  _679
REMARK  279  A    between atoms: _679  and  _680
REMARK  280  A    between atoms: _679  and  _682
REMARK  281  A    between atoms: _682  and  _683
REMARK  282  A    between atoms: _686  and  _688
REMARK  283  A    between atoms: _688  and  _689
REMARK  284  A    between atoms: _688  and  _691
REMARK                            x       y       z     vdW  Elec       q    Type
REMARK                         _______ _______ _______ _____ _____    ______ ____
ROOT
ATOM      1  O   HOH     1      26.840   1.368  12.880  0.00  0.00    +0.000 OA
ENDROOT
TORSDOF 0
REMARK  Name = ../refined-set-2016/3b68/3b68_pocket.pdb
REMARK  284 active torsions:
REMARK  status: ('A' for Active; 'I' for Inactive)
REMARK    1  A    between atoms: _1  and  _3
REMARK    2  A    between atoms: _3  and  _4
REMARK    3  A    between atoms: _3  and  _6
REMARK    4  A    between atoms: _9  and  _11
REMARK    5  A    between atoms: _11  and  _12
REMARK    6  A    between atoms: _15  and  _17
REMARK    7  A    between atoms: _17  and  _18
REMARK    8  A    between atoms: _17  and  _20
REMARK    9  A    between atoms: _20  and  _21
REMARK   10  A    between atoms: _24  and  _26
REMARK   11  A    between atoms: _26  and  _27
REMARK   12  A    between atoms: _26  and  _29
REMARK   13  A    between atoms: _29  and  _30
REMARK   14  A    between atoms: _33  and  _35
REMARK   15  A    between atoms: _35  and  _36
REMARK   16  A    between atoms: _35  and  _38
REMARK   17  A    between atoms: _38  and  _39
REMARK   18  A    between atoms: _41  and  _43
REMARK   19  A    between atoms: _43  and  _44
REMARK   20  A    between atoms: _43  and  _46
REMARK   21  A    between atoms: _46  and  _47
REMARK   22  A    between atoms: _49  and  _51
REMARK   23  A    between atoms: _51  and  _52
REMARK   24  A    between atoms: _51  and  _54
REMARK   25  A    between atoms: _54  and  _55
REMARK   26  A    between atoms: _58  and  _60
REMARK   27  A    between atoms: _60  and  _61
REMARK   28  A    between atoms: _60  and  _63
REMARK   29  A    between atoms: _63  and  _64
REMARK   30  A    between atoms: _69  and  _71
REMARK   31  A    between atoms: _71  and  _72
REMARK   32  A    between atoms: _71  and  _74
REMARK   33  A    between atoms: _74  and  _75
REMARK   34  A    between atoms: _75  and  _76
REMARK   35  A    between atoms: _79  and  _81
REMARK   36  A    between atoms: _81  and  _82
REMARK   37  A    between atoms: _81  and  _84
REMARK   38  A    between atoms: _84  and  _85
REMARK   39  A    between atoms: _88  and  _90
REMARK   40  A    between atoms: _90  and  _91
REMARK   41  A    between atoms: _93  and  _95
REMARK   42  A    between atoms: _95  and  _96
REMARK   43  A    between atoms: _95  and  _98
REMARK   44  A    between atoms: _98  and  _99
REMARK   45  A    between atoms: _99  and  _100
REMARK   46  A    between atoms: _103  and  _105
REMARK   47  A    between atoms: _105  and  _106
REMARK   48  A    between atoms: _105  and  _108
REMARK   49  A    between atoms: _108  and  _109
REMARK   50  A    between atoms: _109  and  _110
REMARK   51  A    between atoms: _110  and  _111
REMARK   52  A    between atoms: _120  and  _122
REMARK   53  A    between atoms: _122  and  _123
REMARK   54  A    between atoms: _122  and  _125
REMARK   55  A    between atoms: _125  and  _126
REMARK   56  A    between atoms: _126  and  _127
REMARK   57  A    between atoms: _132  and  _134
REMARK   58  A    between atoms: _134  and  _135
REMARK   59  A    between atoms: _134  and  _137
REMARK   60  A    between atoms: _137  and  _138
REMARK   61  A    between atoms: _141  and  _143
REMARK   62  A    between atoms: _143  and  _144
REMARK   63  A    between atoms: _147  and  _149
REMARK   64  A    between atoms: _149  and  _150
REMARK   65  A    between atoms: _149  and  _152
REMARK   66  A    between atoms: _152  and  _153
REMARK   67  A    between atoms: _156  and  _158
REMARK   68  A    between atoms: _158  and  _159
REMARK   69  A    between atoms: _158  and  _161
REMARK   70  A    between atoms: _161  and  _162
REMARK   71  A    between atoms: _162  and  _163
REMARK   72  A    between atoms: _168  and  _170
REMARK   73  A    between atoms: _170  and  _171
REMARK   74  A    between atoms: _170  and  _173
REMARK   75  A    between atoms: _173  and  _174
REMARK   76  A    between atoms: _179  and  _180
REMARK   77  A    between atoms: _182  and  _184
REMARK   78  A    between atoms: _184  and  _185
REMARK   79  A    between atoms: _184  and  _187
REMARK   80  A    between atoms: _187  and  _188
REMARK   81  A    between atoms: _190  and  _192
REMARK   82  A    between atoms: _192  and  _193
REMARK   83  A    between atoms: _192  and  _195
REMARK   84  A    between atoms: _195  and  _196
REMARK   85  A    between atoms: _206  and  _208
REMARK   86  A    between atoms: _208  and  _209
REMARK   87  A    between atoms: _208  and  _211
REMARK   88  A    between atoms: _211  and  _212
REMARK   89  A    between atoms: _212  and  _213
REMARK   90  A    between atoms: _215  and  _217
REMARK   91  A    between atoms: _217  and  _218
REMARK   92  A    between atoms: _220  and  _222
REMARK   93  A    between atoms: _222  and  _223
REMARK   94  A    between atoms: _222  and  _225
REMARK   95  A    between atoms: _225  and  _226
REMARK   96  A    between atoms: _229  and  _231
REMARK   97  A    between atoms: _231  and  _232
REMARK   98  A    between atoms: _231  and  _234
REMARK   99  A    between atoms: _234  and  _235
REMARK  100  A    between atoms: _235  and  _236
REMARK  101  A    between atoms: _238  and  _240
REMARK  102  A    between atoms: _240  and  _241
REMARK  103  A    between atoms: _240  and  _243
REMARK  104  A    between atoms: _246  and  _248
REMARK  105  A    between atoms: _248  and  _249
REMARK  106  A    between atoms: _248  and  _251
REMARK  107  A    between atoms: _251  and  _252
REMARK  108  A    between atoms: _258  and  _260
REMARK  109  A    between atoms: _260  and  _261
REMARK  110  A    between atoms: _264  and  _266
REMARK  111  A    between atoms: _266  and  _267
REMARK  112  A    between atoms: _266  and  _269
REMARK  113  A    between atoms: _269  and  _270
REMARK  114  A    between atoms: _270  and  _271
REMARK  115  A    between atoms: _273  and  _275
REMARK  116  A    between atoms: _275  and  _276
REMARK  117  A    between atoms: _278  and  _280
REMARK  118  A    between atoms: _280  and  _281
REMARK  119  A    between atoms: _280  and  _283
REMARK  120  A    between atoms: _283  and  _284
REMARK  121  A    between atoms: _294  and  _296
REMARK  122  A    between atoms: _296  and  _297
REMARK  123  A    between atoms: _296  and  _299
REMARK  124  A    between atoms: _299  and  _300
REMARK  125  A    between atoms: _300  and  _301
REMARK  126  A    between atoms: _301  and  _302
REMARK  127  A    between atoms: _311  and  _313
REMARK  128  A    between atoms: _313  and  _314
REMARK  129  A    between atoms: _313  and  _316
REMARK  130  A    between atoms: _316  and  _317
REMARK  131  A    between atoms: _319  and  _321
REMARK  132  A    between atoms: _321  and  _322
REMARK  133  A    between atoms: _321  and  _324
REMARK  134  A    between atoms: _324  and  _325
REMARK  135  A    between atoms: _328  and  _330
REMARK  136  A    between atoms: _330  and  _331
REMARK  137  A    between atoms: _330  and  _333
REMARK  138  A    between atoms: _333  and  _334
REMARK  139  A    between atoms: _339  and  _340
REMARK  140  A    between atoms: _342  and  _344
REMARK  141  A    between atoms: _344  and  _345
REMARK  142  A    between atoms: _344  and  _347
REMARK  143  A    between atoms: _347  and  _348
REMARK  144  A    between atoms: _354  and  _356
REMARK  145  A    between atoms: _356  and  _357
REMARK  146  A    between atoms: _361  and  _362
REMARK  147  A    between atoms: _367  and  _369
REMARK  148  A    between atoms: _369  and  _370
REMARK  149  A    between atoms: _369  and  _372
REMARK  150  A    between atoms: _372  and  _373
REMARK  151  A    between atoms: _376  and  _378
REMARK  152  A    between atoms: _378  and  _379
REMARK  153  A    between atoms: _378  and  _381
REMARK  154  A    between atoms: _381  and  _382
REMARK  155  A    between atoms: _384  and  _386
REMARK  156  A    between atoms: _386  and  _387
REMARK  157  A    between atoms: _386  and  _389
REMARK  158  A    between atoms: _389  and  _390
REMARK  159  A    between atoms: _390  and  _391
REMARK  160  A    between atoms: _393  and  _395
REMARK  161  A    between atoms: _395  and  _396
REMARK  162  A    between atoms: _395  and  _398
REMARK  163  A    between atoms: _398  and  _399
REMARK  164  A    between atoms: _399  and  _400
REMARK  165  A    between atoms: _405  and  _407
REMARK  166  A    between atoms: _407  and  _408
REMARK  167  A    between atoms: _407  and  _410
REMARK  168  A    between atoms: _412  and  _414
REMARK  169  A    between atoms: _414  and  _415
REMARK  170  A    between atoms: _414  and  _417
REMARK  171  A    between atoms: _417  and  _418
REMARK  172  A    between atoms: _418  and  _419
REMARK  173  A    between atoms: _421  and  _423
REMARK  174  A    between atoms: _423  and  _424
REMARK  175  A    between atoms: _423  and  _426
REMARK  176  A    between atoms: _426  and  _427
REMARK  177  A    between atoms: _430  and  _432
REMARK  178  A    between atoms: _432  and  _433
REMARK  179  A    between atoms: _432  and  _435
REMARK  180  A    between atoms: _435  and  _436
REMARK  181  A    between atoms: _439  and  _441
REMARK  182  A    between atoms: _441  and  _442
REMARK  183  A    between atoms: _441  and  _444
REMARK  184  A    between atoms: _447  and  _449
REMARK  185  A    between atoms: _449  and  _450
REMARK  186  A    between atoms: _449  and  _452
REMARK  187  A    between atoms: _452  and  _453
REMARK  188  A    between atoms: _456  and  _458
REMARK  189  A    between atoms: _458  and  _459
REMARK  190  A    between atoms: _462  and  _464
REMARK  191  A    between atoms: _464  and  _465
REMARK  192  A    between atoms: _464  and  _467
REMARK  193  A    between atoms: _467  and  _468
REMARK  194  A    between atoms: _471  and  _473
REMARK  195  A    between atoms: _473  and  _474
REMARK  196  A    between atoms: _473  and  _476
REMARK  197  A    between atoms: _476  and  _477
REMARK  198  A    between atoms: _482  and  _484
REMARK  199  A    between atoms: _484  and  _485
REMARK  200  A    between atoms: _484  and  _487
REMARK  201  A    between atoms: _487  and  _488
REMARK  202  A    between atoms: _494  and  _496
REMARK  203  A    between atoms: _496  and  _497
REMARK  204  A    between atoms: _496  and  _499
REMARK  205  A    between atoms: _499  and  _500
REMARK  206  A    between atoms: _503  and  _505
REMARK  207  A    between atoms: _505  and  _506
REMARK  208  A    between atoms: _505  and  _508
REMARK  209  A    between atoms: _508  and  _509
REMARK  210  A    between atoms: _515  and  _517
REMARK  211  A    between atoms: _517  and  _518
REMARK  212  A    between atoms: _517  and  _520
REMARK  213  A    between atoms: _520  and  _521
REMARK  214  A    between atoms: _524  and  _526
REMARK  215  A    between atoms: _526  and  _527
REMARK  216  A    between atoms: _526  and  _529
REMARK  217  A    between atoms: _529  and  _530
REMARK  218  A    between atoms: _533  and  _535
REMARK  219  A    between atoms: _535  and  _536
REMARK  220  A    between atoms: _535  and  _538
REMARK  221  A    between atoms: _541  and  _543
REMARK  222  A    between atoms: _543  and  _544
REMARK  223  A    between atoms: _543  and  _546
REMARK  224  A    between atoms: _546  and  _547
REMARK  225  A    between atoms: _550  and  _552
REMARK  226  A    between atoms: _552  and  _553
REMARK  227  A    between atoms: _552  and  _555
REMARK  228  A    between atoms: _555  and  _556
REMARK  229  A    between atoms: _563  and  _564
REMARK  230  A    between atoms: _569  and  _571
REMARK  231  A    between atoms: _571  and  _572
REMARK  232  A    between atoms: _571  and  _574
REMARK  233  A    between atoms: _574  and  _575
REMARK  234  A    between atoms: _575  and  _576
REMARK  235  A    between atoms: _578  and  _580
REMARK  236  A    between atoms: _580  and  _581
REMARK  237  A    between atoms: _580  and  _583
REMARK  238  A    between atoms: _583  and  _584
REMARK  239  A    between atoms: _584  and  _585
REMARK  240  A    between atoms: _587  and  _589
REMARK  241  A    between atoms: _589  and  _590
REMARK  242  A    between atoms: _593  and  _595
REMARK  243  A    between atoms: _595  and  _596
REMARK  244  A    between atoms: _595  and  _598
REMARK  245  A    between atoms: _598  and  _599
REMARK  246  A    between atoms: _599  and  _600
REMARK  247  A    between atoms: _603  and  _605
REMARK  248  A    between atoms: _605  and  _606
REMARK  249  A    between atoms: _605  and  _608
REMARK  250  A    between atoms: _608  and  _609
REMARK  251  A    between atoms: _612  and  _614
REMARK  252  A    between atoms: _614  and  _615
REMARK  253  A    between atoms: _614  and  _617
REMARK  254  A    between atoms: _617  and  _618
REMARK  255  A    between atoms: _621  and  _623
REMARK  256  A    between atoms: _623  and  _624
REMARK  257  A    between atoms: _623  and  _626
REMARK  258  A    between atoms: _626  and  _627
REMARK  259  A    between atoms: _629  and  _631
REMARK  260  A    between atoms: _631  and  _632
REMARK  261  A    between atoms: _631  and  _634
REMARK  262  A    between atoms: _637  and  _639
REMARK  263  A    between atoms: _639  and  _640
REMARK  264  A    between atoms: _639  and  _642
REMARK  265  A    between atoms: _642  and  _643
REMARK  266  A    between atoms: _643  and  _644
REMARK  267  A    between atoms: _649  and  _651
REMARK  268  A    between atoms: _651  and  _652
REMARK  269  A    between atoms: _651  and  _654
REMARK  270  A    between atoms: _658  and  _659
REMARK  271  A    between atoms: _664  and  _666
REMARK  272  A    between atoms: _666  and  _667
REMARK  273  A    between atoms: _666  and  _669
REMARK  274  A    between atoms: _669  and  _670
REMARK  275  A    between atoms: _670  and  _671
REMARK  276  A    between atoms: _671  and  _672
REMARK  277  A    between atoms: _672  and  _673
REMARK  278  A    between atoms: _677  and  _679
REMARK  279  A    between atoms: _679  and  _680
REMARK  280  A    between atoms: _679  and  _682
REMARK  281  A    between atoms: _682  and  _683
REMARK  282  A    between atoms: _686  and  _688
REMARK  283  A    between atoms: _688  and  _689
REMARK  284  A    between atoms: _688  and  _691
REMARK                            x       y       z     vdW  Elec       q    Type
REMARK                         _______ _______ _______ _____ _____    ______ ____
ROOT
ATOM      1  O   HOH     1      23.008   1.099  13.666  0.00  0.00    +0.000 OA
ENDROOT
TORSDOF 0
REMARK  Name = ../refined-set-2016/3b68/3b68_pocket.pdb
REMARK  284 active torsions:
REMARK  status: ('A' for Active; 'I' for Inactive)
REMARK    1  A    between atoms: _1  and  _3
REMARK    2  A    between atoms: _3  and  _4
REMARK    3  A    between atoms: _3  and  _6
REMARK    4  A    between atoms: _9  and  _11
REMARK    5  A    between atoms: _11  and  _12
REMARK    6  A    between atoms: _15  and  _17
REMARK    7  A    between atoms: _17  and  _18
REMARK    8  A    between atoms: _17  and  _20
REMARK    9  A    between atoms: _20  and  _21
REMARK   10  A    between atoms: _24  and  _26
REMARK   11  A    between atoms: _26  and  _27
REMARK   12  A    between atoms: _26  and  _29
REMARK   13  A    between atoms: _29  and  _30
REMARK   14  A    between atoms: _33  and  _35
REMARK   15  A    between atoms: _35  and  _36
REMARK   16  A    between atoms: _35  and  _38
REMARK   17  A    between atoms: _38  and  _39
REMARK   18  A    between atoms: _41  and  _43
REMARK   19  A    between atoms: _43  and  _44
REMARK   20  A    between atoms: _43  and  _46
REMARK   21  A    between atoms: _46  and  _47
REMARK   22  A    between atoms: _49  and  _51
REMARK   23  A    between atoms: _51  and  _52
REMARK   24  A    between atoms: _51  and  _54
REMARK   25  A    between atoms: _54  and  _55
REMARK   26  A    between atoms: _58  and  _60
REMARK   27  A    between atoms: _60  and  _61
REMARK   28  A    between atoms: _60  and  _63
REMARK   29  A    between atoms: _63  and  _64
REMARK   30  A    between atoms: _69  and  _71
REMARK   31  A    between atoms: _71  and  _72
REMARK   32  A    between atoms: _71  and  _74
REMARK   33  A    between atoms: _74  and  _75
REMARK   34  A    between atoms: _75  and  _76
REMARK   35  A    between atoms: _79  and  _81
REMARK   36  A    between atoms: _81  and  _82
REMARK   37  A    between atoms: _81  and  _84
REMARK   38  A    between atoms: _84  and  _85
REMARK   39  A    between atoms: _88  and  _90
REMARK   40  A    between atoms: _90  and  _91
REMARK   41  A    between atoms: _93  and  _95
REMARK   42  A    between atoms: _95  and  _96
REMARK   43  A    between atoms: _95  and  _98
REMARK   44  A    between atoms: _98  and  _99
REMARK   45  A    between atoms: _99  and  _100
REMARK   46  A    between atoms: _103  and  _105
REMARK   47  A    between atoms: _105  and  _106
REMARK   48  A    between atoms: _105  and  _108
REMARK   49  A    between atoms: _108  and  _109
REMARK   50  A    between atoms: _109  and  _110
REMARK   51  A    between atoms: _110  and  _111
REMARK   52  A    between atoms: _120  and  _122
REMARK   53  A    between atoms: _122  and  _123
REMARK   54  A    between atoms: _122  and  _125
REMARK   55  A    between atoms: _125  and  _126
REMARK   56  A    between atoms: _126  and  _127
REMARK   57  A    between atoms: _132  and  _134
REMARK   58  A    between atoms: _134  and  _135
REMARK   59  A    between atoms: _134  and  _137
REMARK   60  A    between atoms: _137  and  _138
REMARK   61  A    between atoms: _141  and  _143
REMARK   62  A    between atoms: _143  and  _144
REMARK   63  A    between atoms: _147  and  _149
REMARK   64  A    between atoms: _149  and  _150
REMARK   65  A    between atoms: _149  and  _152
REMARK   66  A    between atoms: _152  and  _153
REMARK   67  A    between atoms: _156  and  _158
REMARK   68  A    between atoms: _158  and  _159
REMARK   69  A    between atoms: _158  and  _161
REMARK   70  A    between atoms: _161  and  _162
REMARK   71  A    between atoms: _162  and  _163
REMARK   72  A    between atoms: _168  and  _170
REMARK   73  A    between atoms: _170  and  _171
REMARK   74  A    between atoms: _170  and  _173
REMARK   75  A    between atoms: _173  and  _174
REMARK   76  A    between atoms: _179  and  _180
REMARK   77  A    between atoms: _182  and  _184
REMARK   78  A    between atoms: _184  and  _185
REMARK   79  A    between atoms: _184  and  _187
REMARK   80  A    between atoms: _187  and  _188
REMARK   81  A    between atoms: _190  and  _192
REMARK   82  A    between atoms: _192  and  _193
REMARK   83  A    between atoms: _192  and  _195
REMARK   84  A    between atoms: _195  and  _196
REMARK   85  A    between atoms: _206  and  _208
REMARK   86  A    between atoms: _208  and  _209
REMARK   87  A    between atoms: _208  and  _211
REMARK   88  A    between atoms: _211  and  _212
REMARK   89  A    between atoms: _212  and  _213
REMARK   90  A    between atoms: _215  and  _217
REMARK   91  A    between atoms: _217  and  _218
REMARK   92  A    between atoms: _220  and  _222
REMARK   93  A    between atoms: _222  and  _223
REMARK   94  A    between atoms: _222  and  _225
REMARK   95  A    between atoms: _225  and  _226
REMARK   96  A    between atoms: _229  and  _231
REMARK   97  A    between atoms: _231  and  _232
REMARK   98  A    between atoms: _231  and  _234
REMARK   99  A    between atoms: _234  and  _235
REMARK  100  A    between atoms: _235  and  _236
REMARK  101  A    between atoms: _238  and  _240
REMARK  102  A    between atoms: _240  and  _241
REMARK  103  A    between atoms: _240  and  _243
REMARK  104  A    between atoms: _246  and  _248
REMARK  105  A    between atoms: _248  and  _249
REMARK  106  A    between atoms: _248  and  _251
REMARK  107  A    between atoms: _251  and  _252
REMARK  108  A    between atoms: _258  and  _260
REMARK  109  A    between atoms: _260  and  _261
REMARK  110  A    between atoms: _264  and  _266
REMARK  111  A    between atoms: _266  and  _267
REMARK  112  A    between atoms: _266  and  _269
REMARK  113  A    between atoms: _269  and  _270
REMARK  114  A    between atoms: _270  and  _271
REMARK  115  A    between atoms: _273  and  _275
REMARK  116  A    between atoms: _275  and  _276
REMARK  117  A    between atoms: _278  and  _280
REMARK  118  A    between atoms: _280  and  _281
REMARK  119  A    between atoms: _280  and  _283
REMARK  120  A    between atoms: _283  and  _284
REMARK  121  A    between atoms: _294  and  _296
REMARK  122  A    between atoms: _296  and  _297
REMARK  123  A    between atoms: _296  and  _299
REMARK  124  A    between atoms: _299  and  _300
REMARK  125  A    between atoms: _300  and  _301
REMARK  126  A    between atoms: _301  and  _302
REMARK  127  A    between atoms: _311  and  _313
REMARK  128  A    between atoms: _313  and  _314
REMARK  129  A    between atoms: _313  and  _316
REMARK  130  A    between atoms: _316  and  _317
REMARK  131  A    between atoms: _319  and  _321
REMARK  132  A    between atoms: _321  and  _322
REMARK  133  A    between atoms: _321  and  _324
REMARK  134  A    between atoms: _324  and  _325
REMARK  135  A    between atoms: _328  and  _330
REMARK  136  A    between atoms: _330  and  _331
REMARK  137  A    between atoms: _330  and  _333
REMARK  138  A    between atoms: _333  and  _334
REMARK  139  A    between atoms: _339  and  _340
REMARK  140  A    between atoms: _342  and  _344
REMARK  141  A    between atoms: _344  and  _345
REMARK  142  A    between atoms: _344  and  _347
REMARK  143  A    between atoms: _347  and  _348
REMARK  144  A    between atoms: _354  and  _356
REMARK  145  A    between atoms: _356  and  _357
REMARK  146  A    between atoms: _361  and  _362
REMARK  147  A    between atoms: _367  and  _369
REMARK  148  A    between atoms: _369  and  _370
REMARK  149  A    between atoms: _369  and  _372
REMARK  150  A    between atoms: _372  and  _373
REMARK  151  A    between atoms: _376  and  _378
REMARK  152  A    between atoms: _378  and  _379
REMARK  153  A    between atoms: _378  and  _381
REMARK  154  A    between atoms: _381  and  _382
REMARK  155  A    between atoms: _384  and  _386
REMARK  156  A    between atoms: _386  and  _387
REMARK  157  A    between atoms: _386  and  _389
REMARK  158  A    between atoms: _389  and  _390
REMARK  159  A    between atoms: _390  and  _391
REMARK  160  A    between atoms: _393  and  _395
REMARK  161  A    between atoms: _395  and  _396
REMARK  162  A    between atoms: _395  and  _398
REMARK  163  A    between atoms: _398  and  _399
REMARK  164  A    between atoms: _399  and  _400
REMARK  165  A    between atoms: _405  and  _407
REMARK  166  A    between atoms: _407  and  _408
REMARK  167  A    between atoms: _407  and  _410
REMARK  168  A    between atoms: _412  and  _414
REMARK  169  A    between atoms: _414  and  _415
REMARK  170  A    between atoms: _414  and  _417
REMARK  171  A    between atoms: _417  and  _418
REMARK  172  A    between atoms: _418  and  _419
REMARK  173  A    between atoms: _421  and  _423
REMARK  174  A    between atoms: _423  and  _424
REMARK  175  A    between atoms: _423  and  _426
REMARK  176  A    between atoms: _426  and  _427
REMARK  177  A    between atoms: _430  and  _432
REMARK  178  A    between atoms: _432  and  _433
REMARK  179  A    between atoms: _432  and  _435
REMARK  180  A    between atoms: _435  and  _436
REMARK  181  A    between atoms: _439  and  _441
REMARK  182  A    between atoms: _441  and  _442
REMARK  183  A    between atoms: _441  and  _444
REMARK  184  A    between atoms: _447  and  _449
REMARK  185  A    between atoms: _449  and  _450
REMARK  186  A    between atoms: _449  and  _452
REMARK  187  A    between atoms: _452  and  _453
REMARK  188  A    between atoms: _456  and  _458
REMARK  189  A    between atoms: _458  and  _459
REMARK  190  A    between atoms: _462  and  _464
REMARK  191  A    between atoms: _464  and  _465
REMARK  192  A    between atoms: _464  and  _467
REMARK  193  A    between atoms: _467  and  _468
REMARK  194  A    between atoms: _471  and  _473
REMARK  195  A    between atoms: _473  and  _474
REMARK  196  A    between atoms: _473  and  _476
REMARK  197  A    between atoms: _476  and  _477
REMARK  198  A    between atoms: _482  and  _484
REMARK  199  A    between atoms: _484  and  _485
REMARK  200  A    between atoms: _484  and  _487
REMARK  201  A    between atoms: _487  and  _488
REMARK  202  A    between atoms: _494  and  _496
REMARK  203  A    between atoms: _496  and  _497
REMARK  204  A    between atoms: _496  and  _499
REMARK  205  A    between atoms: _499  and  _500
REMARK  206  A    between atoms: _503  and  _505
REMARK  207  A    between atoms: _505  and  _506
REMARK  208  A    between atoms: _505  and  _508
REMARK  209  A    between atoms: _508  and  _509
REMARK  210  A    between atoms: _515  and  _517
REMARK  211  A    between atoms: _517  and  _518
REMARK  212  A    between atoms: _517  and  _520
REMARK  213  A    between atoms: _520  and  _521
REMARK  214  A    between atoms: _524  and  _526
REMARK  215  A    between atoms: _526  and  _527
REMARK  216  A    between atoms: _526  and  _529
REMARK  217  A    between atoms: _529  and  _530
REMARK  218  A    between atoms: _533  and  _535
REMARK  219  A    between atoms: _535  and  _536
REMARK  220  A    between atoms: _535  and  _538
REMARK  221  A    between atoms: _541  and  _543
REMARK  222  A    between atoms: _543  and  _544
REMARK  223  A    between atoms: _543  and  _546
REMARK  224  A    between atoms: _546  and  _547
REMARK  225  A    between atoms: _550  and  _552
REMARK  226  A    between atoms: _552  and  _553
REMARK  227  A    between atoms: _552  and  _555
REMARK  228  A    between atoms: _555  and  _556
REMARK  229  A    between atoms: _563  and  _564
REMARK  230  A    between atoms: _569  and  _571
REMARK  231  A    between atoms: _571  and  _572
REMARK  232  A    between atoms: _571  and  _574
REMARK  233  A    between atoms: _574  and  _575
REMARK  234  A    between atoms: _575  and  _576
REMARK  235  A    between atoms: _578  and  _580
REMARK  236  A    between atoms: _580  and  _581
REMARK  237  A    between atoms: _580  and  _583
REMARK  238  A    between atoms: _583  and  _584
REMARK  239  A    between atoms: _584  and  _585
REMARK  240  A    between atoms: _587  and  _589
REMARK  241  A    between atoms: _589  and  _590
REMARK  242  A    between atoms: _593  and  _595
REMARK  243  A    between atoms: _595  and  _596
REMARK  244  A    between atoms: _595  and  _598
REMARK  245  A    between atoms: _598  and  _599
REMARK  246  A    between atoms: _599  and  _600
REMARK  247  A    between atoms: _603  and  _605
REMARK  248  A    between atoms: _605  and  _606
REMARK  249  A    between atoms: _605  and  _608
REMARK  250  A    between atoms: _608  and  _609
REMARK  251  A    between atoms: _612  and  _614
REMARK  252  A    between atoms: _614  and  _615
REMARK  253  A    between atoms: _614  and  _617
REMARK  254  A    between atoms: _617  and  _618
REMARK  255  A    between atoms: _621  and  _623
REMARK  256  A    between atoms: _623  and  _624
REMARK  257  A    between atoms: _623  and  _626
REMARK  258  A    between atoms: _626  and  _627
REMARK  259  A    between atoms: _629  and  _631
REMARK  260  A    between atoms: _631  and  _632
REMARK  261  A    between atoms: _631  and  _634
REMARK  262  A    between atoms: _637  and  _639
REMARK  263  A    between atoms: _639  and  _640
REMARK  264  A    between atoms: _639  and  _642
REMARK  265  A    between atoms: _642  and  _643
REMARK  266  A    between atoms: _643  and  _644
REMARK  267  A    between atoms: _649  and  _651
REMARK  268  A    between atoms: _651  and  _652
REMARK  269  A    between atoms: _651  and  _654
REMARK  270  A    between atoms: _658  and  _659
REMARK  271  A    between atoms: _664  and  _666
REMARK  272  A    between atoms: _666  and  _667
REMARK  273  A    between atoms: _666  and  _669
REMARK  274  A    between atoms: _669  and  _670
REMARK  275  A    between atoms: _670  and  _671
REMARK  276  A    between atoms: _671  and  _672
REMARK  277  A    between atoms: _672  and  _673
REMARK  278  A    between atoms: _677  and  _679
REMARK  279  A    between atoms: _679  and  _680
REMARK  280  A    between atoms: _679  and  _682
REMARK  281  A    between atoms: _682  and  _683
REMARK  282  A    between atoms: _686  and  _688
REMARK  283  A    between atoms: _688  and  _689
REMARK  284  A    between atoms: _688  and  _691
REMARK                            x       y       z     vdW  Elec       q    Type
REMARK                         _______ _______ _______ _____ _____    ______ ____
ROOT
ATOM      1  O   HOH     1      23.471   9.416   5.750  0.00  0.00    +0.000 OA
ENDROOT
TORSDOF 0
REMARK  Name = ../refined-set-2016/3b68/3b68_pocket.pdb
REMARK  284 active torsions:
REMARK  status: ('A' for Active; 'I' for Inactive)
REMARK    1  A    between atoms: _1  and  _3
REMARK    2  A    between atoms: _3  and  _4
REMARK    3  A    between atoms: _3  and  _6
REMARK    4  A    between atoms: _9  and  _11
REMARK    5  A    between atoms: _11  and  _12
REMARK    6  A    between atoms: _15  and  _17
REMARK    7  A    between atoms: _17  and  _18
REMARK    8  A    between atoms: _17  and  _20
REMARK    9  A    between atoms: _20  and  _21
REMARK   10  A    between atoms: _24  and  _26
REMARK   11  A    between atoms: _26  and  _27
REMARK   12  A    between atoms: _26  and  _29
REMARK   13  A    between atoms: _29  and  _30
REMARK   14  A    between atoms: _33  and  _35
REMARK   15  A    between atoms: _35  and  _36
REMARK   16  A    between atoms: _35  and  _38
REMARK   17  A    between atoms: _38  and  _39
REMARK   18  A    between atoms: _41  and  _43
REMARK   19  A    between atoms: _43  and  _44
REMARK   20  A    between atoms: _43  and  _46
REMARK   21  A    between atoms: _46  and  _47
REMARK   22  A    between atoms: _49  and  _51
REMARK   23  A    between atoms: _51  and  _52
REMARK   24  A    between atoms: _51  and  _54
REMARK   25  A    between atoms: _54  and  _55
REMARK   26  A    between atoms: _58  and  _60
REMARK   27  A    between atoms: _60  and  _61
REMARK   28  A    between atoms: _60  and  _63
REMARK   29  A    between atoms: _63  and  _64
REMARK   30  A    between atoms: _69  and  _71
REMARK   31  A    between atoms: _71  and  _72
REMARK   32  A    between atoms: _71  and  _74
REMARK   33  A    between atoms: _74  and  _75
REMARK   34  A    between atoms: _75  and  _76
REMARK   35  A    between atoms: _79  and  _81
REMARK   36  A    between atoms: _81  and  _82
REMARK   37  A    between atoms: _81  and  _84
REMARK   38  A    between atoms: _84  and  _85
REMARK   39  A    between atoms: _88  and  _90
REMARK   40  A    between atoms: _90  and  _91
REMARK   41  A    between atoms: _93  and  _95
REMARK   42  A    between atoms: _95  and  _96
REMARK   43  A    between atoms: _95  and  _98
REMARK   44  A    between atoms: _98  and  _99
REMARK   45  A    between atoms: _99  and  _100
REMARK   46  A    between atoms: _103  and  _105
REMARK   47  A    between atoms: _105  and  _106
REMARK   48  A    between atoms: _105  and  _108
REMARK   49  A    between atoms: _108  and  _109
REMARK   50  A    between atoms: _109  and  _110
REMARK   51  A    between atoms: _110  and  _111
REMARK   52  A    between atoms: _120  and  _122
REMARK   53  A    between atoms: _122  and  _123
REMARK   54  A    between atoms: _122  and  _125
REMARK   55  A    between atoms: _125  and  _126
REMARK   56  A    between atoms: _126  and  _127
REMARK   57  A    between atoms: _132  and  _134
REMARK   58  A    between atoms: _134  and  _135
REMARK   59  A    between atoms: _134  and  _137
REMARK   60  A    between atoms: _137  and  _138
REMARK   61  A    between atoms: _141  and  _143
REMARK   62  A    between atoms: _143  and  _144
REMARK   63  A    between atoms: _147  and  _149
REMARK   64  A    between atoms: _149  and  _150
REMARK   65  A    between atoms: _149  and  _152
REMARK   66  A    between atoms: _152  and  _153
REMARK   67  A    between atoms: _156  and  _158
REMARK   68  A    between atoms: _158  and  _159
REMARK   69  A    between atoms: _158  and  _161
REMARK   70  A    between atoms: _161  and  _162
REMARK   71  A    between atoms: _162  and  _163
REMARK   72  A    between atoms: _168  and  _170
REMARK   73  A    between atoms: _170  and  _171
REMARK   74  A    between atoms: _170  and  _173
REMARK   75  A    between atoms: _173  and  _174
REMARK   76  A    between atoms: _179  and  _180
REMARK   77  A    between atoms: _182  and  _184
REMARK   78  A    between atoms: _184  and  _185
REMARK   79  A    between atoms: _184  and  _187
REMARK   80  A    between atoms: _187  and  _188
REMARK   81  A    between atoms: _190  and  _192
REMARK   82  A    between atoms: _192  and  _193
REMARK   83  A    between atoms: _192  and  _195
REMARK   84  A    between atoms: _195  and  _196
REMARK   85  A    between atoms: _206  and  _208
REMARK   86  A    between atoms: _208  and  _209
REMARK   87  A    between atoms: _208  and  _211
REMARK   88  A    between atoms: _211  and  _212
REMARK   89  A    between atoms: _212  and  _213
REMARK   90  A    between atoms: _215  and  _217
REMARK   91  A    between atoms: _217  and  _218
REMARK   92  A    between atoms: _220  and  _222
REMARK   93  A    between atoms: _222  and  _223
REMARK   94  A    between atoms: _222  and  _225
REMARK   95  A    between atoms: _225  and  _226
REMARK   96  A    between atoms: _229  and  _231
REMARK   97  A    between atoms: _231  and  _232
REMARK   98  A    between atoms: _231  and  _234
REMARK   99  A    between atoms: _234  and  _235
REMARK  100  A    between atoms: _235  and  _236
REMARK  101  A    between atoms: _238  and  _240
REMARK  102  A    between atoms: _240  and  _241
REMARK  103  A    between atoms: _240  and  _243
REMARK  104  A    between atoms: _246  and  _248
REMARK  105  A    between atoms: _248  and  _249
REMARK  106  A    between atoms: _248  and  _251
REMARK  107  A    between atoms: _251  and  _252
REMARK  108  A    between atoms: _258  and  _260
REMARK  109  A    between atoms: _260  and  _261
REMARK  110  A    between atoms: _264  and  _266
REMARK  111  A    between atoms: _266  and  _267
REMARK  112  A    between atoms: _266  and  _269
REMARK  113  A    between atoms: _269  and  _270
REMARK  114  A    between atoms: _270  and  _271
REMARK  115  A    between atoms: _273  and  _275
REMARK  116  A    between atoms: _275  and  _276
REMARK  117  A    between atoms: _278  and  _280
REMARK  118  A    between atoms: _280  and  _281
REMARK  119  A    between atoms: _280  and  _283
REMARK  120  A    between atoms: _283  and  _284
REMARK  121  A    between atoms: _294  and  _296
REMARK  122  A    between atoms: _296  and  _297
REMARK  123  A    between atoms: _296  and  _299
REMARK  124  A    between atoms: _299  and  _300
REMARK  125  A    between atoms: _300  and  _301
REMARK  126  A    between atoms: _301  and  _302
REMARK  127  A    between atoms: _311  and  _313
REMARK  128  A    between atoms: _313  and  _314
REMARK  129  A    between atoms: _313  and  _316
REMARK  130  A    between atoms: _316  and  _317
REMARK  131  A    between atoms: _319  and  _321
REMARK  132  A    between atoms: _321  and  _322
REMARK  133  A    between atoms: _321  and  _324
REMARK  134  A    between atoms: _324  and  _325
REMARK  135  A    between atoms: _328  and  _330
REMARK  136  A    between atoms: _330  and  _331
REMARK  137  A    between atoms: _330  and  _333
REMARK  138  A    between atoms: _333  and  _334
REMARK  139  A    between atoms: _339  and  _340
REMARK  140  A    between atoms: _342  and  _344
REMARK  141  A    between atoms: _344  and  _345
REMARK  142  A    between atoms: _344  and  _347
REMARK  143  A    between atoms: _347  and  _348
REMARK  144  A    between atoms: _354  and  _356
REMARK  145  A    between atoms: _356  and  _357
REMARK  146  A    between atoms: _361  and  _362
REMARK  147  A    between atoms: _367  and  _369
REMARK  148  A    between atoms: _369  and  _370
REMARK  149  A    between atoms: _369  and  _372
REMARK  150  A    between atoms: _372  and  _373
REMARK  151  A    between atoms: _376  and  _378
REMARK  152  A    between atoms: _378  and  _379
REMARK  153  A    between atoms: _378  and  _381
REMARK  154  A    between atoms: _381  and  _382
REMARK  155  A    between atoms: _384  and  _386
REMARK  156  A    between atoms: _386  and  _387
REMARK  157  A    between atoms: _386  and  _389
REMARK  158  A    between atoms: _389  and  _390
REMARK  159  A    between atoms: _390  and  _391
REMARK  160  A    between atoms: _393  and  _395
REMARK  161  A    between atoms: _395  and  _396
REMARK  162  A    between atoms: _395  and  _398
REMARK  163  A    between atoms: _398  and  _399
REMARK  164  A    between atoms: _399  and  _400
REMARK  165  A    between atoms: _405  and  _407
REMARK  166  A    between atoms: _407  and  _408
REMARK  167  A    between atoms: _407  and  _410
REMARK  168  A    between atoms: _412  and  _414
REMARK  169  A    between atoms: _414  and  _415
REMARK  170  A    between atoms: _414  and  _417
REMARK  171  A    between atoms: _417  and  _418
REMARK  172  A    between atoms: _418  and  _419
REMARK  173  A    between atoms: _421  and  _423
REMARK  174  A    between atoms: _423  and  _424
REMARK  175  A    between atoms: _423  and  _426
REMARK  176  A    between atoms: _426  and  _427
REMARK  177  A    between atoms: _430  and  _432
REMARK  178  A    between atoms: _432  and  _433
REMARK  179  A    between atoms: _432  and  _435
REMARK  180  A    between atoms: _435  and  _436
REMARK  181  A    between atoms: _439  and  _441
REMARK  182  A    between atoms: _441  and  _442
REMARK  183  A    between atoms: _441  and  _444
REMARK  184  A    between atoms: _447  and  _449
REMARK  185  A    between atoms: _449  and  _450
REMARK  186  A    between atoms: _449  and  _452
REMARK  187  A    between atoms: _452  and  _453
REMARK  188  A    between atoms: _456  and  _458
REMARK  189  A    between atoms: _458  and  _459
REMARK  190  A    between atoms: _462  and  _464
REMARK  191  A    between atoms: _464  and  _465
REMARK  192  A    between atoms: _464  and  _467
REMARK  193  A    between atoms: _467  and  _468
REMARK  194  A    between atoms: _471  and  _473
REMARK  195  A    between atoms: _473  and  _474
REMARK  196  A    between atoms: _473  and  _476
REMARK  197  A    between atoms: _476  and  _477
REMARK  198  A    between atoms: _482  and  _484
REMARK  199  A    between atoms: _484  and  _485
REMARK  200  A    between atoms: _484  and  _487
REMARK  201  A    between atoms: _487  and  _488
REMARK  202  A    between atoms: _494  and  _496
REMARK  203  A    between atoms: _496  and  _497
REMARK  204  A    between atoms: _496  and  _499
REMARK  205  A    between atoms: _499  and  _500
REMARK  206  A    between atoms: _503  and  _505
REMARK  207  A    between atoms: _505  and  _506
REMARK  208  A    between atoms: _505  and  _508
REMARK  209  A    between atoms: _508  and  _509
REMARK  210  A    between atoms: _515  and  _517
REMARK  211  A    between atoms: _517  and  _518
REMARK  212  A    between atoms: _517  and  _520
REMARK  213  A    between atoms: _520  and  _521
REMARK  214  A    between atoms: _524  and  _526
REMARK  215  A    between atoms: _526  and  _527
REMARK  216  A    between atoms: _526  and  _529
REMARK  217  A    between atoms: _529  and  _530
REMARK  218  A    between atoms: _533  and  _535
REMARK  219  A    between atoms: _535  and  _536
REMARK  220  A    between atoms: _535  and  _538
REMARK  221  A    between atoms: _541  and  _543
REMARK  222  A    between atoms: _543  and  _544
REMARK  223  A    between atoms: _543  and  _546
REMARK  224  A    between atoms: _546  and  _547
REMARK  225  A    between atoms: _550  and  _552
REMARK  226  A    between atoms: _552  and  _553
REMARK  227  A    between atoms: _552  and  _555
REMARK  228  A    between atoms: _555  and  _556
REMARK  229  A    between atoms: _563  and  _564
REMARK  230  A    between atoms: _569  and  _571
REMARK  231  A    between atoms: _571  and  _572
REMARK  232  A    between atoms: _571  and  _574
REMARK  233  A    between atoms: _574  and  _575
REMARK  234  A    between atoms: _575  and  _576
REMARK  235  A    between atoms: _578  and  _580
REMARK  236  A    between atoms: _580  and  _581
REMARK  237  A    between atoms: _580  and  _583
REMARK  238  A    between atoms: _583  and  _584
REMARK  239  A    between atoms: _584  and  _585
REMARK  240  A    between atoms: _587  and  _589
REMARK  241  A    between atoms: _589  and  _590
REMARK  242  A    between atoms: _593  and  _595
REMARK  243  A    between atoms: _595  and  _596
REMARK  244  A    between atoms: _595  and  _598
REMARK  245  A    between atoms: _598  and  _599
REMARK  246  A    between atoms: _599  and  _600
REMARK  247  A    between atoms: _603  and  _605
REMARK  248  A    between atoms: _605  and  _606
REMARK  249  A    between atoms: _605  and  _608
REMARK  250  A    between atoms: _608  and  _609
REMARK  251  A    between atoms: _612  and  _614
REMARK  252  A    between atoms: _614  and  _615
REMARK  253  A    between atoms: _614  and  _617
REMARK  254  A    between atoms: _617  and  _618
REMARK  255  A    between atoms: _621  and  _623
REMARK  256  A    between atoms: _623  and  _624
REMARK  257  A    between atoms: _623  and  _626
REMARK  258  A    between atoms: _626  and  _627
REMARK  259  A    between atoms: _629  and  _631
REMARK  260  A    between atoms: _631  and  _632
REMARK  261  A    between atoms: _631  and  _634
REMARK  262  A    between atoms: _637  and  _639
REMARK  263  A    between atoms: _639  and  _640
REMARK  264  A    between atoms: _639  and  _642
REMARK  265  A    between atoms: _642  and  _643
REMARK  266  A    between atoms: _643  and  _644
REMARK  267  A    between atoms: _649  and  _651
REMARK  268  A    between atoms: _651  and  _652
REMARK  269  A    between atoms: _651  and  _654
REMARK  270  A    between atoms: _658  and  _659
REMARK  271  A    between atoms: _664  and  _666
REMARK  272  A    between atoms: _666  and  _667
REMARK  273  A    between atoms: _666  and  _669
REMARK  274  A    between atoms: _669  and  _670
REMARK  275  A    between atoms: _670  and  _671
REMARK  276  A    between atoms: _671  and  _672
REMARK  277  A    between atoms: _672  and  _673
REMARK  278  A    between atoms: _677  and  _679
REMARK  279  A    between atoms: _679  and  _680
REMARK  280  A    between atoms: _679  and  _682
REMARK  281  A    between atoms: _682  and  _683
REMARK  282  A    between atoms: _686  and  _688
REMARK  283  A    between atoms: _688  and  _689
REMARK  284  A    between atoms: _688  and  _691
REMARK                            x       y       z     vdW  Elec       q    Type
REMARK                         _______ _______ _______ _____ _____    ______ ____
ROOT
ATOM      1  O   HOH     1      26.091  12.303   1.815  0.00  0.00    +0.000 OA
ENDROOT
TORSDOF 0
REMARK  Name = ../refined-set-2016/3b68/3b68_pocket.pdb
REMARK  284 active torsions:
REMARK  status: ('A' for Active; 'I' for Inactive)
REMARK    1  A    between atoms: _1  and  _3
REMARK    2  A    between atoms: _3  and  _4
REMARK    3  A    between atoms: _3  and  _6
REMARK    4  A    between atoms: _9  and  _11
REMARK    5  A    between atoms: _11  and  _12
REMARK    6  A    between atoms: _15  and  _17
REMARK    7  A    between atoms: _17  and  _18
REMARK    8  A    between atoms: _17  and  _20
REMARK    9  A    between atoms: _20  and  _21
REMARK   10  A    between atoms: _24  and  _26
REMARK   11  A    between atoms: _26  and  _27
REMARK   12  A    between atoms: _26  and  _29
REMARK   13  A    between atoms: _29  and  _30
REMARK   14  A    between atoms: _33  and  _35
REMARK   15  A    between atoms: _35  and  _36
REMARK   16  A    between atoms: _35  and  _38
REMARK   17  A    between atoms: _38  and  _39
REMARK   18  A    between atoms: _41  and  _43
REMARK   19  A    between atoms: _43  and  _44
REMARK   20  A    between atoms: _43  and  _46
REMARK   21  A    between atoms: _46  and  _47
REMARK   22  A    between atoms: _49  and  _51
REMARK   23  A    between atoms: _51  and  _52
REMARK   24  A    between atoms: _51  and  _54
REMARK   25  A    between atoms: _54  and  _55
REMARK   26  A    between atoms: _58  and  _60
REMARK   27  A    between atoms: _60  and  _61
REMARK   28  A    between atoms: _60  and  _63
REMARK   29  A    between atoms: _63  and  _64
REMARK   30  A    between atoms: _69  and  _71
REMARK   31  A    between atoms: _71  and  _72
REMARK   32  A    between atoms: _71  and  _74
REMARK   33  A    between atoms: _74  and  _75
REMARK   34  A    between atoms: _75  and  _76
REMARK   35  A    between atoms: _79  and  _81
REMARK   36  A    between atoms: _81  and  _82
REMARK   37  A    between atoms: _81  and  _84
REMARK   38  A    between atoms: _84  and  _85
REMARK   39  A    between atoms: _88  and  _90
REMARK   40  A    between atoms: _90  and  _91
REMARK   41  A    between atoms: _93  and  _95
REMARK   42  A    between atoms: _95  and  _96
REMARK   43  A    between atoms: _95  and  _98
REMARK   44  A    between atoms: _98  and  _99
REMARK   45  A    between atoms: _99  and  _100
REMARK   46  A    between atoms: _103  and  _105
REMARK   47  A    between atoms: _105  and  _106
REMARK   48  A    between atoms: _105  and  _108
REMARK   49  A    between atoms: _108  and  _109
REMARK   50  A    between atoms: _109  and  _110
REMARK   51  A    between atoms: _110  and  _111
REMARK   52  A    between atoms: _120  and  _122
REMARK   53  A    between atoms: _122  and  _123
REMARK   54  A    between atoms: _122  and  _125
REMARK   55  A    between atoms: _125  and  _126
REMARK   56  A    between atoms: _126  and  _127
REMARK   57  A    between atoms: _132  and  _134
REMARK   58  A    between atoms: _134  and  _135
REMARK   59  A    between atoms: _134  and  _137
REMARK   60  A    between atoms: _137  and  _138
REMARK   61  A    between atoms: _141  and  _143
REMARK   62  A    between atoms: _143  and  _144
REMARK   63  A    between atoms: _147  and  _149
REMARK   64  A    between atoms: _149  and  _150
REMARK   65  A    between atoms: _149  and  _152
REMARK   66  A    between atoms: _152  and  _153
REMARK   67  A    between atoms: _156  and  _158
REMARK   68  A    between atoms: _158  and  _159
REMARK   69  A    between atoms: _158  and  _161
REMARK   70  A    between atoms: _161  and  _162
REMARK   71  A    between atoms: _162  and  _163
REMARK   72  A    between atoms: _168  and  _170
REMARK   73  A    between atoms: _170  and  _171
REMARK   74  A    between atoms: _170  and  _173
REMARK   75  A    between atoms: _173  and  _174
REMARK   76  A    between atoms: _179  and  _180
REMARK   77  A    between atoms: _182  and  _184
REMARK   78  A    between atoms: _184  and  _185
REMARK   79  A    between atoms: _184  and  _187
REMARK   80  A    between atoms: _187  and  _188
REMARK   81  A    between atoms: _190  and  _192
REMARK   82  A    between atoms: _192  and  _193
REMARK   83  A    between atoms: _192  and  _195
REMARK   84  A    between atoms: _195  and  _196
REMARK   85  A    between atoms: _206  and  _208
REMARK   86  A    between atoms: _208  and  _209
REMARK   87  A    between atoms: _208  and  _211
REMARK   88  A    between atoms: _211  and  _212
REMARK   89  A    between atoms: _212  and  _213
REMARK   90  A    between atoms: _215  and  _217
REMARK   91  A    between atoms: _217  and  _218
REMARK   92  A    between atoms: _220  and  _222
REMARK   93  A    between atoms: _222  and  _223
REMARK   94  A    between atoms: _222  and  _225
REMARK   95  A    between atoms: _225  and  _226
REMARK   96  A    between atoms: _229  and  _231
REMARK   97  A    between atoms: _231  and  _232
REMARK   98  A    between atoms: _231  and  _234
REMARK   99  A    between atoms: _234  and  _235
REMARK  100  A    between atoms: _235  and  _236
REMARK  101  A    between atoms: _238  and  _240
REMARK  102  A    between atoms: _240  and  _241
REMARK  103  A    between atoms: _240  and  _243
REMARK  104  A    between atoms: _246  and  _248
REMARK  105  A    between atoms: _248  and  _249
REMARK  106  A    between atoms: _248  and  _251
REMARK  107  A    between atoms: _251  and  _252
REMARK  108  A    between atoms: _258  and  _260
REMARK  109  A    between atoms: _260  and  _261
REMARK  110  A    between atoms: _264  and  _266
REMARK  111  A    between atoms: _266  and  _267
REMARK  112  A    between atoms: _266  and  _269
REMARK  113  A    between atoms: _269  and  _270
REMARK  114  A    between atoms: _270  and  _271
REMARK  115  A    between atoms: _273  and  _275
REMARK  116  A    between atoms: _275  and  _276
REMARK  117  A    between atoms: _278  and  _280
REMARK  118  A    between atoms: _280  and  _281
REMARK  119  A    between atoms: _280  and  _283
REMARK  120  A    between atoms: _283  and  _284
REMARK  121  A    between atoms: _294  and  _296
REMARK  122  A    between atoms: _296  and  _297
REMARK  123  A    between atoms: _296  and  _299
REMARK  124  A    between atoms: _299  and  _300
REMARK  125  A    between atoms: _300  and  _301
REMARK  126  A    between atoms: _301  and  _302
REMARK  127  A    between atoms: _311  and  _313
REMARK  128  A    between atoms: _313  and  _314
REMARK  129  A    between atoms: _313  and  _316
REMARK  130  A    between atoms: _316  and  _317
REMARK  131  A    between atoms: _319  and  _321
REMARK  132  A    between atoms: _321  and  _322
REMARK  133  A    between atoms: _321  and  _324
REMARK  134  A    between atoms: _324  and  _325
REMARK  135  A    between atoms: _328  and  _330
REMARK  136  A    between atoms: _330  and  _331
REMARK  137  A    between atoms: _330  and  _333
REMARK  138  A    between atoms: _333  and  _334
REMARK  139  A    between atoms: _339  and  _340
REMARK  140  A    between atoms: _342  and  _344
REMARK  141  A    between atoms: _344  and  _345
REMARK  142  A    between atoms: _344  and  _347
REMARK  143  A    between atoms: _347  and  _348
REMARK  144  A    between atoms: _354  and  _356
REMARK  145  A    between atoms: _356  and  _357
REMARK  146  A    between atoms: _361  and  _362
REMARK  147  A    between atoms: _367  and  _369
REMARK  148  A    between atoms: _369  and  _370
REMARK  149  A    between atoms: _369  and  _372
REMARK  150  A    between atoms: _372  and  _373
REMARK  151  A    between atoms: _376  and  _378
REMARK  152  A    between atoms: _378  and  _379
REMARK  153  A    between atoms: _378  and  _381
REMARK  154  A    between atoms: _381  and  _382
REMARK  155  A    between atoms: _384  and  _386
REMARK  156  A    between atoms: _386  and  _387
REMARK  157  A    between atoms: _386  and  _389
REMARK  158  A    between atoms: _389  and  _390
REMARK  159  A    between atoms: _390  and  _391
REMARK  160  A    between atoms: _393  and  _395
REMARK  161  A    between atoms: _395  and  _396
REMARK  162  A    between atoms: _395  and  _398
REMARK  163  A    between atoms: _398  and  _399
REMARK  164  A    between atoms: _399  and  _400
REMARK  165  A    between atoms: _405  and  _407
REMARK  166  A    between atoms: _407  and  _408
REMARK  167  A    between atoms: _407  and  _410
REMARK  168  A    between atoms: _412  and  _414
REMARK  169  A    between atoms: _414  and  _415
REMARK  170  A    between atoms: _414  and  _417
REMARK  171  A    between atoms: _417  and  _418
REMARK  172  A    between atoms: _418  and  _419
REMARK  173  A    between atoms: _421  and  _423
REMARK  174  A    between atoms: _423  and  _424
REMARK  175  A    between atoms: _423  and  _426
REMARK  176  A    between atoms: _426  and  _427
REMARK  177  A    between atoms: _430  and  _432
REMARK  178  A    between atoms: _432  and  _433
REMARK  179  A    between atoms: _432  and  _435
REMARK  180  A    between atoms: _435  and  _436
REMARK  181  A    between atoms: _439  and  _441
REMARK  182  A    between atoms: _441  and  _442
REMARK  183  A    between atoms: _441  and  _444
REMARK  184  A    between atoms: _447  and  _449
REMARK  185  A    between atoms: _449  and  _450
REMARK  186  A    between atoms: _449  and  _452
REMARK  187  A    between atoms: _452  and  _453
REMARK  188  A    between atoms: _456  and  _458
REMARK  189  A    between atoms: _458  and  _459
REMARK  190  A    between atoms: _462  and  _464
REMARK  191  A    between atoms: _464  and  _465
REMARK  192  A    between atoms: _464  and  _467
REMARK  193  A    between atoms: _467  and  _468
REMARK  194  A    between atoms: _471  and  _473
REMARK  195  A    between atoms: _473  and  _474
REMARK  196  A    between atoms: _473  and  _476
REMARK  197  A    between atoms: _476  and  _477
REMARK  198  A    between atoms: _482  and  _484
REMARK  199  A    between atoms: _484  and  _485
REMARK  200  A    between atoms: _484  and  _487
REMARK  201  A    between atoms: _487  and  _488
REMARK  202  A    between atoms: _494  and  _496
REMARK  203  A    between atoms: _496  and  _497
REMARK  204  A    between atoms: _496  and  _499
REMARK  205  A    between atoms: _499  and  _500
REMARK  206  A    between atoms: _503  and  _505
REMARK  207  A    between atoms: _505  and  _506
REMARK  208  A    between atoms: _505  and  _508
REMARK  209  A    between atoms: _508  and  _509
REMARK  210  A    between atoms: _515  and  _517
REMARK  211  A    between atoms: _517  and  _518
REMARK  212  A    between atoms: _517  and  _520
REMARK  213  A    between atoms: _520  and  _521
REMARK  214  A    between atoms: _524  and  _526
REMARK  215  A    between atoms: _526  and  _527
REMARK  216  A    between atoms: _526  and  _529
REMARK  217  A    between atoms: _529  and  _530
REMARK  218  A    between atoms: _533  and  _535
REMARK  219  A    between atoms: _535  and  _536
REMARK  220  A    between atoms: _535  and  _538
REMARK  221  A    between atoms: _541  and  _543
REMARK  222  A    between atoms: _543  and  _544
REMARK  223  A    between atoms: _543  and  _546
REMARK  224  A    between atoms: _546  and  _547
REMARK  225  A    between atoms: _550  and  _552
REMARK  226  A    between atoms: _552  and  _553
REMARK  227  A    between atoms: _552  and  _555
REMARK  228  A    between atoms: _555  and  _556
REMARK  229  A    between atoms: _563  and  _564
REMARK  230  A    between atoms: _569  and  _571
REMARK  231  A    between atoms: _571  and  _572
REMARK  232  A    between atoms: _571  and  _574
REMARK  233  A    between atoms: _574  and  _575
REMARK  234  A    between atoms: _575  and  _576
REMARK  235  A    between atoms: _578  and  _580
REMARK  236  A    between atoms: _580  and  _581
REMARK  237  A    between atoms: _580  and  _583
REMARK  238  A    between atoms: _583  and  _584
REMARK  239  A    between atoms: _584  and  _585
REMARK  240  A    between atoms: _587  and  _589
REMARK  241  A    between atoms: _589  and  _590
REMARK  242  A    between atoms: _593  and  _595
REMARK  243  A    between atoms: _595  and  _596
REMARK  244  A    between atoms: _595  and  _598
REMARK  245  A    between atoms: _598  and  _599
REMARK  246  A    between atoms: _599  and  _600
REMARK  247  A    between atoms: _603  and  _605
REMARK  248  A    between atoms: _605  and  _606
REMARK  249  A    between atoms: _605  and  _608
REMARK  250  A    between atoms: _608  and  _609
REMARK  251  A    between atoms: _612  and  _614
REMARK  252  A    between atoms: _614  and  _615
REMARK  253  A    between atoms: _614  and  _617
REMARK  254  A    between atoms: _617  and  _618
REMARK  255  A    between atoms: _621  and  _623
REMARK  256  A    between atoms: _623  and  _624
REMARK  257  A    between atoms: _623  and  _626
REMARK  258  A    between atoms: _626  and  _627
REMARK  259  A    between atoms: _629  and  _631
REMARK  260  A    between atoms: _631  and  _632
REMARK  261  A    between atoms: _631  and  _634
REMARK  262  A    between atoms: _637  and  _639
REMARK  263  A    between atoms: _639  and  _640
REMARK  264  A    between atoms: _639  and  _642
REMARK  265  A    between atoms: _642  and  _643
REMARK  266  A    between atoms: _643  and  _644
REMARK  267  A    between atoms: _649  and  _651
REMARK  268  A    between atoms: _651  and  _652
REMARK  269  A    between atoms: _651  and  _654
REMARK  270  A    between atoms: _658  and  _659
REMARK  271  A    between atoms: _664  and  _666
REMARK  272  A    between atoms: _666  and  _667
REMARK  273  A    between atoms: _666  and  _669
REMARK  274  A    between atoms: _669  and  _670
REMARK  275  A    between atoms: _670  and  _671
REMARK  276  A    between atoms: _671  and  _672
REMARK  277  A    between atoms: _672  and  _673
REMARK  278  A    between atoms: _677  and  _679
REMARK  279  A    between atoms: _679  and  _680
REMARK  280  A    between atoms: _679  and  _682
REMARK  281  A    between atoms: _682  and  _683
REMARK  282  A    between atoms: _686  and  _688
REMARK  283  A    between atoms: _688  and  _689
REMARK  284  A    between atoms: _688  and  _691
REMARK                            x       y       z     vdW  Elec       q    Type
REMARK                         _______ _______ _______ _____ _____    ______ ____
ROOT
ATOM      1  O   HOH     1      37.759   3.832   0.988  0.00  0.00    +0.000 OA
ENDROOT
TORSDOF 0
REMARK  Name = ../refined-set-2016/3b68/3b68_pocket.pdb
REMARK  284 active torsions:
REMARK  status: ('A' for Active; 'I' for Inactive)
REMARK    1  A    between atoms: _1  and  _3
REMARK    2  A    between atoms: _3  and  _4
REMARK    3  A    between atoms: _3  and  _6
REMARK    4  A    between atoms: _9  and  _11
REMARK    5  A    between atoms: _11  and  _12
REMARK    6  A    between atoms: _15  and  _17
REMARK    7  A    between atoms: _17  and  _18
REMARK    8  A    between atoms: _17  and  _20
REMARK    9  A    between atoms: _20  and  _21
REMARK   10  A    between atoms: _24  and  _26
REMARK   11  A    between atoms: _26  and  _27
REMARK   12  A    between atoms: _26  and  _29
REMARK   13  A    between atoms: _29  and  _30
REMARK   14  A    between atoms: _33  and  _35
REMARK   15  A    between atoms: _35  and  _36
REMARK   16  A    between atoms: _35  and  _38
REMARK   17  A    between atoms: _38  and  _39
REMARK   18  A    between atoms: _41  and  _43
REMARK   19  A    between atoms: _43  and  _44
REMARK   20  A    between atoms: _43  and  _46
REMARK   21  A    between atoms: _46  and  _47
REMARK   22  A    between atoms: _49  and  _51
REMARK   23  A    between atoms: _51  and  _52
REMARK   24  A    between atoms: _51  and  _54
REMARK   25  A    between atoms: _54  and  _55
REMARK   26  A    between atoms: _58  and  _60
REMARK   27  A    between atoms: _60  and  _61
REMARK   28  A    between atoms: _60  and  _63
REMARK   29  A    between atoms: _63  and  _64
REMARK   30  A    between atoms: _69  and  _71
REMARK   31  A    between atoms: _71  and  _72
REMARK   32  A    between atoms: _71  and  _74
REMARK   33  A    between atoms: _74  and  _75
REMARK   34  A    between atoms: _75  and  _76
REMARK   35  A    between atoms: _79  and  _81
REMARK   36  A    between atoms: _81  and  _82
REMARK   37  A    between atoms: _81  and  _84
REMARK   38  A    between atoms: _84  and  _85
REMARK   39  A    between atoms: _88  and  _90
REMARK   40  A    between atoms: _90  and  _91
REMARK   41  A    between atoms: _93  and  _95
REMARK   42  A    between atoms: _95  and  _96
REMARK   43  A    between atoms: _95  and  _98
REMARK   44  A    between atoms: _98  and  _99
REMARK   45  A    between atoms: _99  and  _100
REMARK   46  A    between atoms: _103  and  _105
REMARK   47  A    between atoms: _105  and  _106
REMARK   48  A    between atoms: _105  and  _108
REMARK   49  A    between atoms: _108  and  _109
REMARK   50  A    between atoms: _109  and  _110
REMARK   51  A    between atoms: _110  and  _111
REMARK   52  A    between atoms: _120  and  _122
REMARK   53  A    between atoms: _122  and  _123
REMARK   54  A    between atoms: _122  and  _125
REMARK   55  A    between atoms: _125  and  _126
REMARK   56  A    between atoms: _126  and  _127
REMARK   57  A    between atoms: _132  and  _134
REMARK   58  A    between atoms: _134  and  _135
REMARK   59  A    between atoms: _134  and  _137
REMARK   60  A    between atoms: _137  and  _138
REMARK   61  A    between atoms: _141  and  _143
REMARK   62  A    between atoms: _143  and  _144
REMARK   63  A    between atoms: _147  and  _149
REMARK   64  A    between atoms: _149  and  _150
REMARK   65  A    between atoms: _149  and  _152
REMARK   66  A    between atoms: _152  and  _153
REMARK   67  A    between atoms: _156  and  _158
REMARK   68  A    between atoms: _158  and  _159
REMARK   69  A    between atoms: _158  and  _161
REMARK   70  A    between atoms: _161  and  _162
REMARK   71  A    between atoms: _162  and  _163
REMARK   72  A    between atoms: _168  and  _170
REMARK   73  A    between atoms: _170  and  _171
REMARK   74  A    between atoms: _170  and  _173
REMARK   75  A    between atoms: _173  and  _174
REMARK   76  A    between atoms: _179  and  _180
REMARK   77  A    between atoms: _182  and  _184
REMARK   78  A    between atoms: _184  and  _185
REMARK   79  A    between atoms: _184  and  _187
REMARK   80  A    between atoms: _187  and  _188
REMARK   81  A    between atoms: _190  and  _192
REMARK   82  A    between atoms: _192  and  _193
REMARK   83  A    between atoms: _192  and  _195
REMARK   84  A    between atoms: _195  and  _196
REMARK   85  A    between atoms: _206  and  _208
REMARK   86  A    between atoms: _208  and  _209
REMARK   87  A    between atoms: _208  and  _211
REMARK   88  A    between atoms: _211  and  _212
REMARK   89  A    between atoms: _212  and  _213
REMARK   90  A    between atoms: _215  and  _217
REMARK   91  A    between atoms: _217  and  _218
REMARK   92  A    between atoms: _220  and  _222
REMARK   93  A    between atoms: _222  and  _223
REMARK   94  A    between atoms: _222  and  _225
REMARK   95  A    between atoms: _225  and  _226
REMARK   96  A    between atoms: _229  and  _231
REMARK   97  A    between atoms: _231  and  _232
REMARK   98  A    between atoms: _231  and  _234
REMARK   99  A    between atoms: _234  and  _235
REMARK  100  A    between atoms: _235  and  _236
REMARK  101  A    between atoms: _238  and  _240
REMARK  102  A    between atoms: _240  and  _241
REMARK  103  A    between atoms: _240  and  _243
REMARK  104  A    between atoms: _246  and  _248
REMARK  105  A    between atoms: _248  and  _249
REMARK  106  A    between atoms: _248  and  _251
REMARK  107  A    between atoms: _251  and  _252
REMARK  108  A    between atoms: _258  and  _260
REMARK  109  A    between atoms: _260  and  _261
REMARK  110  A    between atoms: _264  and  _266
REMARK  111  A    between atoms: _266  and  _267
REMARK  112  A    between atoms: _266  and  _269
REMARK  113  A    between atoms: _269  and  _270
REMARK  114  A    between atoms: _270  and  _271
REMARK  115  A    between atoms: _273  and  _275
REMARK  116  A    between atoms: _275  and  _276
REMARK  117  A    between atoms: _278  and  _280
REMARK  118  A    between atoms: _280  and  _281
REMARK  119  A    between atoms: _280  and  _283
REMARK  120  A    between atoms: _283  and  _284
REMARK  121  A    between atoms: _294  and  _296
REMARK  122  A    between atoms: _296  and  _297
REMARK  123  A    between atoms: _296  and  _299
REMARK  124  A    between atoms: _299  and  _300
REMARK  125  A    between atoms: _300  and  _301
REMARK  126  A    between atoms: _301  and  _302
REMARK  127  A    between atoms: _311  and  _313
REMARK  128  A    between atoms: _313  and  _314
REMARK  129  A    between atoms: _313  and  _316
REMARK  130  A    between atoms: _316  and  _317
REMARK  131  A    between atoms: _319  and  _321
REMARK  132  A    between atoms: _321  and  _322
REMARK  133  A    between atoms: _321  and  _324
REMARK  134  A    between atoms: _324  and  _325
REMARK  135  A    between atoms: _328  and  _330
REMARK  136  A    between atoms: _330  and  _331
REMARK  137  A    between atoms: _330  and  _333
REMARK  138  A    between atoms: _333  and  _334
REMARK  139  A    between atoms: _339  and  _340
REMARK  140  A    between atoms: _342  and  _344
REMARK  141  A    between atoms: _344  and  _345
REMARK  142  A    between atoms: _344  and  _347
REMARK  143  A    between atoms: _347  and  _348
REMARK  144  A    between atoms: _354  and  _356
REMARK  145  A    between atoms: _356  and  _357
REMARK  146  A    between atoms: _361  and  _362
REMARK  147  A    between atoms: _367  and  _369
REMARK  148  A    between atoms: _369  and  _370
REMARK  149  A    between atoms: _369  and  _372
REMARK  150  A    between atoms: _372  and  _373
REMARK  151  A    between atoms: _376  and  _378
REMARK  152  A    between atoms: _378  and  _379
REMARK  153  A    between atoms: _378  and  _381
REMARK  154  A    between atoms: _381  and  _382
REMARK  155  A    between atoms: _384  and  _386
REMARK  156  A    between atoms: _386  and  _387
REMARK  157  A    between atoms: _386  and  _389
REMARK  158  A    between atoms: _389  and  _390
REMARK  159  A    between atoms: _390  and  _391
REMARK  160  A    between atoms: _393  and  _395
REMARK  161  A    between atoms: _395  and  _396
REMARK  162  A    between atoms: _395  and  _398
REMARK  163  A    between atoms: _398  and  _399
REMARK  164  A    between atoms: _399  and  _400
REMARK  165  A    between atoms: _405  and  _407
REMARK  166  A    between atoms: _407  and  _408
REMARK  167  A    between atoms: _407  and  _410
REMARK  168  A    between atoms: _412  and  _414
REMARK  169  A    between atoms: _414  and  _415
REMARK  170  A    between atoms: _414  and  _417
REMARK  171  A    between atoms: _417  and  _418
REMARK  172  A    between atoms: _418  and  _419
REMARK  173  A    between atoms: _421  and  _423
REMARK  174  A    between atoms: _423  and  _424
REMARK  175  A    between atoms: _423  and  _426
REMARK  176  A    between atoms: _426  and  _427
REMARK  177  A    between atoms: _430  and  _432
REMARK  178  A    between atoms: _432  and  _433
REMARK  179  A    between atoms: _432  and  _435
REMARK  180  A    between atoms: _435  and  _436
REMARK  181  A    between atoms: _439  and  _441
REMARK  182  A    between atoms: _441  and  _442
REMARK  183  A    between atoms: _441  and  _444
REMARK  184  A    between atoms: _447  and  _449
REMARK  185  A    between atoms: _449  and  _450
REMARK  186  A    between atoms: _449  and  _452
REMARK  187  A    between atoms: _452  and  _453
REMARK  188  A    between atoms: _456  and  _458
REMARK  189  A    between atoms: _458  and  _459
REMARK  190  A    between atoms: _462  and  _464
REMARK  191  A    between atoms: _464  and  _465
REMARK  192  A    between atoms: _464  and  _467
REMARK  193  A    between atoms: _467  and  _468
REMARK  194  A    between atoms: _471  and  _473
REMARK  195  A    between atoms: _473  and  _474
REMARK  196  A    between atoms: _473  and  _476
REMARK  197  A    between atoms: _476  and  _477
REMARK  198  A    between atoms: _482  and  _484
REMARK  199  A    between atoms: _484  and  _485
REMARK  200  A    between atoms: _484  and  _487
REMARK  201  A    between atoms: _487  and  _488
REMARK  202  A    between atoms: _494  and  _496
REMARK  203  A    between atoms: _496  and  _497
REMARK  204  A    between atoms: _496  and  _499
REMARK  205  A    between atoms: _499  and  _500
REMARK  206  A    between atoms: _503  and  _505
REMARK  207  A    between atoms: _505  and  _506
REMARK  208  A    between atoms: _505  and  _508
REMARK  209  A    between atoms: _508  and  _509
REMARK  210  A    between atoms: _515  and  _517
REMARK  211  A    between atoms: _517  and  _518
REMARK  212  A    between atoms: _517  and  _520
REMARK  213  A    between atoms: _520  and  _521
REMARK  214  A    between atoms: _524  and  _526
REMARK  215  A    between atoms: _526  and  _527
REMARK  216  A    between atoms: _526  and  _529
REMARK  217  A    between atoms: _529  and  _530
REMARK  218  A    between atoms: _533  and  _535
REMARK  219  A    between atoms: _535  and  _536
REMARK  220  A    between atoms: _535  and  _538
REMARK  221  A    between atoms: _541  and  _543
REMARK  222  A    between atoms: _543  and  _544
REMARK  223  A    between atoms: _543  and  _546
REMARK  224  A    between atoms: _546  and  _547
REMARK  225  A    between atoms: _550  and  _552
REMARK  226  A    between atoms: _552  and  _553
REMARK  227  A    between atoms: _552  and  _555
REMARK  228  A    between atoms: _555  and  _556
REMARK  229  A    between atoms: _563  and  _564
REMARK  230  A    between atoms: _569  and  _571
REMARK  231  A    between atoms: _571  and  _572
REMARK  232  A    between atoms: _571  and  _574
REMARK  233  A    between atoms: _574  and  _575
REMARK  234  A    between atoms: _575  and  _576
REMARK  235  A    between atoms: _578  and  _580
REMARK  236  A    between atoms: _580  and  _581
REMARK  237  A    between atoms: _580  and  _583
REMARK  238  A    between atoms: _583  and  _584
REMARK  239  A    between atoms: _584  and  _585
REMARK  240  A    between atoms: _587  and  _589
REMARK  241  A    between atoms: _589  and  _590
REMARK  242  A    between atoms: _593  and  _595
REMARK  243  A    between atoms: _595  and  _596
REMARK  244  A    between atoms: _595  and  _598
REMARK  245  A    between atoms: _598  and  _599
REMARK  246  A    between atoms: _599  and  _600
REMARK  247  A    between atoms: _603  and  _605
REMARK  248  A    between atoms: _605  and  _606
REMARK  249  A    between atoms: _605  and  _608
REMARK  250  A    between atoms: _608  and  _609
REMARK  251  A    between atoms: _612  and  _614
REMARK  252  A    between atoms: _614  and  _615
REMARK  253  A    between atoms: _614  and  _617
REMARK  254  A    between atoms: _617  and  _618
REMARK  255  A    between atoms: _621  and  _623
REMARK  256  A    between atoms: _623  and  _624
REMARK  257  A    between atoms: _623  and  _626
REMARK  258  A    between atoms: _626  and  _627
REMARK  259  A    between atoms: _629  and  _631
REMARK  260  A    between atoms: _631  and  _632
REMARK  261  A    between atoms: _631  and  _634
REMARK  262  A    between atoms: _637  and  _639
REMARK  263  A    between atoms: _639  and  _640
REMARK  264  A    between atoms: _639  and  _642
REMARK  265  A    between atoms: _642  and  _643
REMARK  266  A    between atoms: _643  and  _644
REMARK  267  A    between atoms: _649  and  _651
REMARK  268  A    between atoms: _651  and  _652
REMARK  269  A    between atoms: _651  and  _654
REMARK  270  A    between atoms: _658  and  _659
REMARK  271  A    between atoms: _664  and  _666
REMARK  272  A    between atoms: _666  and  _667
REMARK  273  A    between atoms: _666  and  _669
REMARK  274  A    between atoms: _669  and  _670
REMARK  275  A    between atoms: _670  and  _671
REMARK  276  A    between atoms: _671  and  _672
REMARK  277  A    between atoms: _672  and  _673
REMARK  278  A    between atoms: _677  and  _679
REMARK  279  A    between atoms: _679  and  _680
REMARK  280  A    between atoms: _679  and  _682
REMARK  281  A    between atoms: _682  and  _683
REMARK  282  A    between atoms: _686  and  _688
REMARK  283  A    between atoms: _688  and  _689
REMARK  284  A    between atoms: _688  and  _691
REMARK                            x       y       z     vdW  Elec       q    Type
REMARK                         _______ _______ _______ _____ _____    ______ ____
ROOT
ATOM      1  O   HOH     1      24.927  14.979   2.332  0.00  0.00    +0.000 OA
ENDROOT
TORSDOF 0
REMARK  Name = ../refined-set-2016/3b68/3b68_pocket.pdb
REMARK  284 active torsions:
REMARK  status: ('A' for Active; 'I' for Inactive)
REMARK    1  A    between atoms: _1  and  _3
REMARK    2  A    between atoms: _3  and  _4
REMARK    3  A    between atoms: _3  and  _6
REMARK    4  A    between atoms: _9  and  _11
REMARK    5  A    between atoms: _11  and  _12
REMARK    6  A    between atoms: _15  and  _17
REMARK    7  A    between atoms: _17  and  _18
REMARK    8  A    between atoms: _17  and  _20
REMARK    9  A    between atoms: _20  and  _21
REMARK   10  A    between atoms: _24  and  _26
REMARK   11  A    between atoms: _26  and  _27
REMARK   12  A    between atoms: _26  and  _29
REMARK   13  A    between atoms: _29  and  _30
REMARK   14  A    between atoms: _33  and  _35
REMARK   15  A    between atoms: _35  and  _36
REMARK   16  A    between atoms: _35  and  _38
REMARK   17  A    between atoms: _38  and  _39
REMARK   18  A    between atoms: _41  and  _43
REMARK   19  A    between atoms: _43  and  _44
REMARK   20  A    between atoms: _43  and  _46
REMARK   21  A    between atoms: _46  and  _47
REMARK   22  A    between atoms: _49  and  _51
REMARK   23  A    between atoms: _51  and  _52
REMARK   24  A    between atoms: _51  and  _54
REMARK   25  A    between atoms: _54  and  _55
REMARK   26  A    between atoms: _58  and  _60
REMARK   27  A    between atoms: _60  and  _61
REMARK   28  A    between atoms: _60  and  _63
REMARK   29  A    between atoms: _63  and  _64
REMARK   30  A    between atoms: _69  and  _71
REMARK   31  A    between atoms: _71  and  _72
REMARK   32  A    between atoms: _71  and  _74
REMARK   33  A    between atoms: _74  and  _75
REMARK   34  A    between atoms: _75  and  _76
REMARK   35  A    between atoms: _79  and  _81
REMARK   36  A    between atoms: _81  and  _82
REMARK   37  A    between atoms: _81  and  _84
REMARK   38  A    between atoms: _84  and  _85
REMARK   39  A    between atoms: _88  and  _90
REMARK   40  A    between atoms: _90  and  _91
REMARK   41  A    between atoms: _93  and  _95
REMARK   42  A    between atoms: _95  and  _96
REMARK   43  A    between atoms: _95  and  _98
REMARK   44  A    between atoms: _98  and  _99
REMARK   45  A    between atoms: _99  and  _100
REMARK   46  A    between atoms: _103  and  _105
REMARK   47  A    between atoms: _105  and  _106
REMARK   48  A    between atoms: _105  and  _108
REMARK   49  A    between atoms: _108  and  _109
REMARK   50  A    between atoms: _109  and  _110
REMARK   51  A    between atoms: _110  and  _111
REMARK   52  A    between atoms: _120  and  _122
REMARK   53  A    between atoms: _122  and  _123
REMARK   54  A    between atoms: _122  and  _125
REMARK   55  A    between atoms: _125  and  _126
REMARK   56  A    between atoms: _126  and  _127
REMARK   57  A    between atoms: _132  and  _134
REMARK   58  A    between atoms: _134  and  _135
REMARK   59  A    between atoms: _134  and  _137
REMARK   60  A    between atoms: _137  and  _138
REMARK   61  A    between atoms: _141  and  _143
REMARK   62  A    between atoms: _143  and  _144
REMARK   63  A    between atoms: _147  and  _149
REMARK   64  A    between atoms: _149  and  _150
REMARK   65  A    between atoms: _149  and  _152
REMARK   66  A    between atoms: _152  and  _153
REMARK   67  A    between atoms: _156  and  _158
REMARK   68  A    between atoms: _158  and  _159
REMARK   69  A    between atoms: _158  and  _161
REMARK   70  A    between atoms: _161  and  _162
REMARK   71  A    between atoms: _162  and  _163
REMARK   72  A    between atoms: _168  and  _170
REMARK   73  A    between atoms: _170  and  _171
REMARK   74  A    between atoms: _170  and  _173
REMARK   75  A    between atoms: _173  and  _174
REMARK   76  A    between atoms: _179  and  _180
REMARK   77  A    between atoms: _182  and  _184
REMARK   78  A    between atoms: _184  and  _185
REMARK   79  A    between atoms: _184  and  _187
REMARK   80  A    between atoms: _187  and  _188
REMARK   81  A    between atoms: _190  and  _192
REMARK   82  A    between atoms: _192  and  _193
REMARK   83  A    between atoms: _192  and  _195
REMARK   84  A    between atoms: _195  and  _196
REMARK   85  A    between atoms: _206  and  _208
REMARK   86  A    between atoms: _208  and  _209
REMARK   87  A    between atoms: _208  and  _211
REMARK   88  A    between atoms: _211  and  _212
REMARK   89  A    between atoms: _212  and  _213
REMARK   90  A    between atoms: _215  and  _217
REMARK   91  A    between atoms: _217  and  _218
REMARK   92  A    between atoms: _220  and  _222
REMARK   93  A    between atoms: _222  and  _223
REMARK   94  A    between atoms: _222  and  _225
REMARK   95  A    between atoms: _225  and  _226
REMARK   96  A    between atoms: _229  and  _231
REMARK   97  A    between atoms: _231  and  _232
REMARK   98  A    between atoms: _231  and  _234
REMARK   99  A    between atoms: _234  and  _235
REMARK  100  A    between atoms: _235  and  _236
REMARK  101  A    between atoms: _238  and  _240
REMARK  102  A    between atoms: _240  and  _241
REMARK  103  A    between atoms: _240  and  _243
REMARK  104  A    between atoms: _246  and  _248
REMARK  105  A    between atoms: _248  and  _249
REMARK  106  A    between atoms: _248  and  _251
REMARK  107  A    between atoms: _251  and  _252
REMARK  108  A    between atoms: _258  and  _260
REMARK  109  A    between atoms: _260  and  _261
REMARK  110  A    between atoms: _264  and  _266
REMARK  111  A    between atoms: _266  and  _267
REMARK  112  A    between atoms: _266  and  _269
REMARK  113  A    between atoms: _269  and  _270
REMARK  114  A    between atoms: _270  and  _271
REMARK  115  A    between atoms: _273  and  _275
REMARK  116  A    between atoms: _275  and  _276
REMARK  117  A    between atoms: _278  and  _280
REMARK  118  A    between atoms: _280  and  _281
REMARK  119  A    between atoms: _280  and  _283
REMARK  120  A    between atoms: _283  and  _284
REMARK  121  A    between atoms: _294  and  _296
REMARK  122  A    between atoms: _296  and  _297
REMARK  123  A    between atoms: _296  and  _299
REMARK  124  A    between atoms: _299  and  _300
REMARK  125  A    between atoms: _300  and  _301
REMARK  126  A    between atoms: _301  and  _302
REMARK  127  A    between atoms: _311  and  _313
REMARK  128  A    between atoms: _313  and  _314
REMARK  129  A    between atoms: _313  and  _316
REMARK  130  A    between atoms: _316  and  _317
REMARK  131  A    between atoms: _319  and  _321
REMARK  132  A    between atoms: _321  and  _322
REMARK  133  A    between atoms: _321  and  _324
REMARK  134  A    between atoms: _324  and  _325
REMARK  135  A    between atoms: _328  and  _330
REMARK  136  A    between atoms: _330  and  _331
REMARK  137  A    between atoms: _330  and  _333
REMARK  138  A    between atoms: _333  and  _334
REMARK  139  A    between atoms: _339  and  _340
REMARK  140  A    between atoms: _342  and  _344
REMARK  141  A    between atoms: _344  and  _345
REMARK  142  A    between atoms: _344  and  _347
REMARK  143  A    between atoms: _347  and  _348
REMARK  144  A    between atoms: _354  and  _356
REMARK  145  A    between atoms: _356  and  _357
REMARK  146  A    between atoms: _361  and  _362
REMARK  147  A    between atoms: _367  and  _369
REMARK  148  A    between atoms: _369  and  _370
REMARK  149  A    between atoms: _369  and  _372
REMARK  150  A    between atoms: _372  and  _373
REMARK  151  A    between atoms: _376  and  _378
REMARK  152  A    between atoms: _378  and  _379
REMARK  153  A    between atoms: _378  and  _381
REMARK  154  A    between atoms: _381  and  _382
REMARK  155  A    between atoms: _384  and  _386
REMARK  156  A    between atoms: _386  and  _387
REMARK  157  A    between atoms: _386  and  _389
REMARK  158  A    between atoms: _389  and  _390
REMARK  159  A    between atoms: _390  and  _391
REMARK  160  A    between atoms: _393  and  _395
REMARK  161  A    between atoms: _395  and  _396
REMARK  162  A    between atoms: _395  and  _398
REMARK  163  A    between atoms: _398  and  _399
REMARK  164  A    between atoms: _399  and  _400
REMARK  165  A    between atoms: _405  and  _407
REMARK  166  A    between atoms: _407  and  _408
REMARK  167  A    between atoms: _407  and  _410
REMARK  168  A    between atoms: _412  and  _414
REMARK  169  A    between atoms: _414  and  _415
REMARK  170  A    between atoms: _414  and  _417
REMARK  171  A    between atoms: _417  and  _418
REMARK  172  A    between atoms: _418  and  _419
REMARK  173  A    between atoms: _421  and  _423
REMARK  174  A    between atoms: _423  and  _424
REMARK  175  A    between atoms: _423  and  _426
REMARK  176  A    between atoms: _426  and  _427
REMARK  177  A    between atoms: _430  and  _432
REMARK  178  A    between atoms: _432  and  _433
REMARK  179  A    between atoms: _432  and  _435
REMARK  180  A    between atoms: _435  and  _436
REMARK  181  A    between atoms: _439  and  _441
REMARK  182  A    between atoms: _441  and  _442
REMARK  183  A    between atoms: _441  and  _444
REMARK  184  A    between atoms: _447  and  _449
REMARK  185  A    between atoms: _449  and  _450
REMARK  186  A    between atoms: _449  and  _452
REMARK  187  A    between atoms: _452  and  _453
REMARK  188  A    between atoms: _456  and  _458
REMARK  189  A    between atoms: _458  and  _459
REMARK  190  A    between atoms: _462  and  _464
REMARK  191  A    between atoms: _464  and  _465
REMARK  192  A    between atoms: _464  and  _467
REMARK  193  A    between atoms: _467  and  _468
REMARK  194  A    between atoms: _471  and  _473
REMARK  195  A    between atoms: _473  and  _474
REMARK  196  A    between atoms: _473  and  _476
REMARK  197  A    between atoms: _476  and  _477
REMARK  198  A    between atoms: _482  and  _484
REMARK  199  A    between atoms: _484  and  _485
REMARK  200  A    between atoms: _484  and  _487
REMARK  201  A    between atoms: _487  and  _488
REMARK  202  A    between atoms: _494  and  _496
REMARK  203  A    between atoms: _496  and  _497
REMARK  204  A    between atoms: _496  and  _499
REMARK  205  A    between atoms: _499  and  _500
REMARK  206  A    between atoms: _503  and  _505
REMARK  207  A    between atoms: _505  and  _506
REMARK  208  A    between atoms: _505  and  _508
REMARK  209  A    between atoms: _508  and  _509
REMARK  210  A    between atoms: _515  and  _517
REMARK  211  A    between atoms: _517  and  _518
REMARK  212  A    between atoms: _517  and  _520
REMARK  213  A    between atoms: _520  and  _521
REMARK  214  A    between atoms: _524  and  _526
REMARK  215  A    between atoms: _526  and  _527
REMARK  216  A    between atoms: _526  and  _529
REMARK  217  A    between atoms: _529  and  _530
REMARK  218  A    between atoms: _533  and  _535
REMARK  219  A    between atoms: _535  and  _536
REMARK  220  A    between atoms: _535  and  _538
REMARK  221  A    between atoms: _541  and  _543
REMARK  222  A    between atoms: _543  and  _544
REMARK  223  A    between atoms: _543  and  _546
REMARK  224  A    between atoms: _546  and  _547
REMARK  225  A    between atoms: _550  and  _552
REMARK  226  A    between atoms: _552  and  _553
REMARK  227  A    between atoms: _552  and  _555
REMARK  228  A    between atoms: _555  and  _556
REMARK  229  A    between atoms: _563  and  _564
REMARK  230  A    between atoms: _569  and  _571
REMARK  231  A    between atoms: _571  and  _572
REMARK  232  A    between atoms: _571  and  _574
REMARK  233  A    between atoms: _574  and  _575
REMARK  234  A    between atoms: _575  and  _576
REMARK  235  A    between atoms: _578  and  _580
REMARK  236  A    between atoms: _580  and  _581
REMARK  237  A    between atoms: _580  and  _583
REMARK  238  A    between atoms: _583  and  _584
REMARK  239  A    between atoms: _584  and  _585
REMARK  240  A    between atoms: _587  and  _589
REMARK  241  A    between atoms: _589  and  _590
REMARK  242  A    between atoms: _593  and  _595
REMARK  243  A    between atoms: _595  and  _596
REMARK  244  A    between atoms: _595  and  _598
REMARK  245  A    between atoms: _598  and  _599
REMARK  246  A    between atoms: _599  and  _600
REMARK  247  A    between atoms: _603  and  _605
REMARK  248  A    between atoms: _605  and  _606
REMARK  249  A    between atoms: _605  and  _608
REMARK  250  A    between atoms: _608  and  _609
REMARK  251  A    between atoms: _612  and  _614
REMARK  252  A    between atoms: _614  and  _615
REMARK  253  A    between atoms: _614  and  _617
REMARK  254  A    between atoms: _617  and  _618
REMARK  255  A    between atoms: _621  and  _623
REMARK  256  A    between atoms: _623  and  _624
REMARK  257  A    between atoms: _623  and  _626
REMARK  258  A    between atoms: _626  and  _627
REMARK  259  A    between atoms: _629  and  _631
REMARK  260  A    between atoms: _631  and  _632
REMARK  261  A    between atoms: _631  and  _634
REMARK  262  A    between atoms: _637  and  _639
REMARK  263  A    between atoms: _639  and  _640
REMARK  264  A    between atoms: _639  and  _642
REMARK  265  A    between atoms: _642  and  _643
REMARK  266  A    between atoms: _643  and  _644
REMARK  267  A    between atoms: _649  and  _651
REMARK  268  A    between atoms: _651  and  _652
REMARK  269  A    between atoms: _651  and  _654
REMARK  270  A    between atoms: _658  and  _659
REMARK  271  A    between atoms: _664  and  _666
REMARK  272  A    between atoms: _666  and  _667
REMARK  273  A    between atoms: _666  and  _669
REMARK  274  A    between atoms: _669  and  _670
REMARK  275  A    between atoms: _670  and  _671
REMARK  276  A    between atoms: _671  and  _672
REMARK  277  A    between atoms: _672  and  _673
REMARK  278  A    between atoms: _677  and  _679
REMARK  279  A    between atoms: _679  and  _680
REMARK  280  A    between atoms: _679  and  _682
REMARK  281  A    between atoms: _682  and  _683
REMARK  282  A    between atoms: _686  and  _688
REMARK  283  A    between atoms: _688  and  _689
REMARK  284  A    between atoms: _688  and  _691
REMARK                            x       y       z     vdW  Elec       q    Type
REMARK                         _______ _______ _______ _____ _____    ______ ____
ROOT
ATOM      1  O   HOH     1      24.500  14.914   5.062  0.00  0.00    +0.000 OA
ENDROOT
TORSDOF 0
