REMARK  Name = ../refined-set-2016/3cda/3cda_pocket.pdb
REMARK  251 active torsions:
REMARK  status: ('A' for Active; 'I' for Inactive)
REMARK    1  A    between atoms: _1  and  _3
REMARK    2  A    between atoms: _3  and  _4
REMARK    3  A    between atoms: _3  and  _6
REMARK    4  A    between atoms: _6  and  _7
REMARK    5  A    between atoms: _12  and  _13
REMARK    6  A    between atoms: _15  and  _17
REMARK    7  A    between atoms: _17  and  _18
REMARK    8  A    between atoms: _17  and  _20
REMARK    9  A    between atoms: _20  and  _21
REMARK   10  A    between atoms: _21  and  _22
REMARK   11  A    between atoms: _25  and  _27
REMARK   12  A    between atoms: _27  and  _28
REMARK   13  A    between atoms: _27  and  _30
REMARK   14  A    between atoms: _30  and  _31
REMARK   15  A    between atoms: _34  and  _36
REMARK   16  A    between atoms: _36  and  _37
REMARK   17  A    between atoms: _36  and  _39
REMARK   18  A    between atoms: _39  and  _40
REMARK   19  A    between atoms: _40  and  _41
REMARK   20  A    between atoms: _41  and  _42
REMARK   21  A    between atoms: _51  and  _53
REMARK   22  A    between atoms: _53  and  _54
REMARK   23  A    between atoms: _57  and  _58
REMARK   24  A    between atoms: _63  and  _65
REMARK   25  A    between atoms: _65  and  _66
REMARK   26  A    between atoms: _65  and  _68
REMARK   27  A    between atoms: _68  and  _69
REMARK   28  A    between atoms: _69  and  _70
REMARK   29  A    between atoms: _72  and  _74
REMARK   30  A    between atoms: _74  and  _75
REMARK   31  A    between atoms: _74  and  _77
REMARK   32  A    between atoms: _77  and  _78
REMARK   33  A    between atoms: _78  and  _79
REMARK   34  A    between atoms: _81  and  _83
REMARK   35  A    between atoms: _83  and  _84
REMARK   36  A    between atoms: _83  and  _86
REMARK   37  A    between atoms: _86  and  _87
REMARK   38  A    between atoms: _92  and  _94
REMARK   39  A    between atoms: _94  and  _95
REMARK   40  A    between atoms: _94  and  _97
REMARK   41  A    between atoms: _97  and  _98
REMARK   42  A    between atoms: _101  and  _103
REMARK   43  A    between atoms: _103  and  _104
REMARK   44  A    between atoms: _103  and  _106
REMARK   45  A    between atoms: _106  and  _107
REMARK   46  A    between atoms: _109  and  _111
REMARK   47  A    between atoms: _111  and  _112
REMARK   48  A    between atoms: _111  and  _114
REMARK   49  A    between atoms: _114  and  _115
REMARK   50  A    between atoms: _115  and  _116
REMARK   51  A    between atoms: _116  and  _117
REMARK   52  A    between atoms: _117  and  _118
REMARK   53  A    between atoms: _122  and  _124
REMARK   54  A    between atoms: _124  and  _125
REMARK   55  A    between atoms: _124  and  _127
REMARK   56  A    between atoms: _127  and  _128
REMARK   57  A    between atoms: _131  and  _133
REMARK   58  A    between atoms: _133  and  _134
REMARK   59  A    between atoms: _133  and  _136
REMARK   60  A    between atoms: _136  and  _137
REMARK   61  A    between atoms: _137  and  _138
REMARK   62  A    between atoms: _141  and  _143
REMARK   63  A    between atoms: _143  and  _144
REMARK   64  A    between atoms: _147  and  _149
REMARK   65  A    between atoms: _149  and  _150
REMARK   66  A    between atoms: _149  and  _152
REMARK   67  A    between atoms: _155  and  _157
REMARK   68  A    between atoms: _157  and  _158
REMARK   69  A    between atoms: _157  and  _160
REMARK   70  A    between atoms: _160  and  _161
REMARK   71  A    between atoms: _163  and  _165
REMARK   72  A    between atoms: _165  and  _166
REMARK   73  A    between atoms: _168  and  _170
REMARK   74  A    between atoms: _170  and  _171
REMARK   75  A    between atoms: _170  and  _173
REMARK   76  A    between atoms: _173  and  _174
REMARK   77  A    between atoms: _179  and  _181
REMARK   78  A    between atoms: _181  and  _182
REMARK   79  A    between atoms: _181  and  _184
REMARK   80  A    between atoms: _184  and  _185
REMARK   81  A    between atoms: _190  and  _191
REMARK   82  A    between atoms: _193  and  _195
REMARK   83  A    between atoms: _195  and  _196
REMARK   84  A    between atoms: _195  and  _198
REMARK   85  A    between atoms: _200  and  _202
REMARK   86  A    between atoms: _202  and  _203
REMARK   87  A    between atoms: _202  and  _205
REMARK   88  A    between atoms: _205  and  _206
REMARK   89  A    between atoms: _209  and  _211
REMARK   90  A    between atoms: _211  and  _212
REMARK   91  A    between atoms: _211  and  _214
REMARK   92  A    between atoms: _214  and  _215
REMARK   93  A    between atoms: _218  and  _220
REMARK   94  A    between atoms: _220  and  _221
REMARK   95  A    between atoms: _220  and  _223
REMARK   96  A    between atoms: _223  and  _224
REMARK   97  A    between atoms: _224  and  _225
REMARK   98  A    between atoms: _225  and  _226
REMARK   99  A    between atoms: _226  and  _227
REMARK  100  A    between atoms: _231  and  _233
REMARK  101  A    between atoms: _233  and  _234
REMARK  102  A    between atoms: _233  and  _236
REMARK  103  A    between atoms: _236  and  _237
REMARK  104  A    between atoms: _237  and  _238
REMARK  105  A    between atoms: _238  and  _239
REMARK  106  A    between atoms: _239  and  _240
REMARK  107  A    between atoms: _244  and  _246
REMARK  108  A    between atoms: _246  and  _247
REMARK  109  A    between atoms: _246  and  _249
REMARK  110  A    between atoms: _249  and  _250
REMARK  111  A    between atoms: _250  and  _251
REMARK  112  A    between atoms: _251  and  _252
REMARK  113  A    between atoms: _261  and  _263
REMARK  114  A    between atoms: _263  and  _264
REMARK  115  A    between atoms: _263  and  _266
REMARK  116  A    between atoms: _266  and  _267
REMARK  117  A    between atoms: _270  and  _272
REMARK  118  A    between atoms: _272  and  _273
REMARK  119  A    between atoms: _276  and  _278
REMARK  120  A    between atoms: _278  and  _279
REMARK  121  A    between atoms: _278  and  _281
REMARK  122  A    between atoms: _281  and  _282
REMARK  123  A    between atoms: _282  and  _283
REMARK  124  A    between atoms: _288  and  _290
REMARK  125  A    between atoms: _290  and  _291
REMARK  126  A    between atoms: _290  and  _293
REMARK  127  A    between atoms: _293  and  _294
REMARK  128  A    between atoms: _294  and  _295
REMARK  129  A    between atoms: _298  and  _300
REMARK  130  A    between atoms: _300  and  _301
REMARK  131  A    between atoms: _303  and  _305
REMARK  132  A    between atoms: _305  and  _306
REMARK  133  A    between atoms: _305  and  _308
REMARK  134  A    between atoms: _310  and  _312
REMARK  135  A    between atoms: _312  and  _313
REMARK  136  A    between atoms: _312  and  _315
REMARK  137  A    between atoms: _315  and  _316
REMARK  138  A    between atoms: _319  and  _321
REMARK  139  A    between atoms: _321  and  _322
REMARK  140  A    between atoms: _321  and  _324
REMARK  141  A    between atoms: _327  and  _329
REMARK  142  A    between atoms: _329  and  _330
REMARK  143  A    between atoms: _333  and  _335
REMARK  144  A    between atoms: _335  and  _336
REMARK  145  A    between atoms: _335  and  _338
REMARK  146  A    between atoms: _338  and  _339
REMARK  147  A    between atoms: _341  and  _343
REMARK  148  A    between atoms: _343  and  _344
REMARK  149  A    between atoms: _343  and  _346
REMARK  150  A    between atoms: _346  and  _347
REMARK  151  A    between atoms: _350  and  _352
REMARK  152  A    between atoms: _352  and  _353
REMARK  153  A    between atoms: _352  and  _355
REMARK  154  A    between atoms: _355  and  _356
REMARK  155  A    between atoms: _361  and  _363
REMARK  156  A    between atoms: _363  and  _364
REMARK  157  A    between atoms: _363  and  _366
REMARK  158  A    between atoms: _366  and  _367
REMARK  159  A    between atoms: _367  and  _368
REMARK  160  A    between atoms: _368  and  _369
REMARK  161  A    between atoms: _378  and  _380
REMARK  162  A    between atoms: _380  and  _381
REMARK  163  A    between atoms: _383  and  _385
REMARK  164  A    between atoms: _385  and  _386
REMARK  165  A    between atoms: _385  and  _388
REMARK  166  A    between atoms: _391  and  _393
REMARK  167  A    between atoms: _393  and  _394
REMARK  168  A    between atoms: _393  and  _396
REMARK  169  A    between atoms: _396  and  _397
REMARK  170  A    between atoms: _400  and  _402
REMARK  171  A    between atoms: _402  and  _403
REMARK  172  A    between atoms: _402  and  _405
REMARK  173  A    between atoms: _405  and  _406
REMARK  174  A    between atoms: _406  and  _407
REMARK  175  A    between atoms: _407  and  _408
REMARK  176  A    between atoms: _408  and  _409
REMARK  177  A    between atoms: _413  and  _415
REMARK  178  A    between atoms: _415  and  _416
REMARK  179  A    between atoms: _415  and  _418
REMARK  180  A    between atoms: _418  and  _419
REMARK  181  A    between atoms: _419  and  _420
REMARK  182  A    between atoms: _420  and  _421
REMARK  183  A    between atoms: _421  and  _422
REMARK  184  A    between atoms: _426  and  _428
REMARK  185  A    between atoms: _428  and  _429
REMARK  186  A    between atoms: _428  and  _431
REMARK  187  A    between atoms: _431  and  _432
REMARK  188  A    between atoms: _437  and  _439
REMARK  189  A    between atoms: _439  and  _440
REMARK  190  A    between atoms: _439  and  _442
REMARK  191  A    between atoms: _442  and  _443
REMARK  192  A    between atoms: _448  and  _450
REMARK  193  A    between atoms: _450  and  _451
REMARK  194  A    between atoms: _454  and  _456
REMARK  195  A    between atoms: _456  and  _457
REMARK  196  A    between atoms: _456  and  _459
REMARK  197  A    between atoms: _459  and  _460
REMARK  198  A    between atoms: _465  and  _467
REMARK  199  A    between atoms: _467  and  _468
REMARK  200  A    between atoms: _471  and  _473
REMARK  201  A    between atoms: _473  and  _474
REMARK  202  A    between atoms: _477  and  _479
REMARK  203  A    between atoms: _479  and  _480
REMARK  204  A    between atoms: _479  and  _482
REMARK  205  A    between atoms: _482  and  _483
REMARK  206  A    between atoms: _488  and  _490
REMARK  207  A    between atoms: _490  and  _491
REMARK  208  A    between atoms: _490  and  _493
REMARK  209  A    between atoms: _493  and  _494
REMARK  210  A    between atoms: _497  and  _499
REMARK  211  A    between atoms: _499  and  _500
REMARK  212  A    between atoms: _502  and  _504
REMARK  213  A    between atoms: _504  and  _505
REMARK  214  A    between atoms: _504  and  _507
REMARK  215  A    between atoms: _507  and  _508
REMARK  216  A    between atoms: _508  and  _509
REMARK  217  A    between atoms: _512  and  _514
REMARK  218  A    between atoms: _514  and  _515
REMARK  219  A    between atoms: _514  and  _517
REMARK  220  A    between atoms: _517  and  _518
REMARK  221  A    between atoms: _521  and  _523
REMARK  222  A    between atoms: _523  and  _524
REMARK  223  A    between atoms: _523  and  _526
REMARK  224  A    between atoms: _526  and  _527
REMARK  225  A    between atoms: _529  and  _531
REMARK  226  A    between atoms: _531  and  _532
REMARK  227  A    between atoms: _531  and  _534
REMARK  228  A    between atoms: _534  and  _535
REMARK  229  A    between atoms: _538  and  _540
REMARK  230  A    between atoms: _540  and  _541
REMARK  231  A    between atoms: _540  and  _543
REMARK  232  A    between atoms: _543  and  _544
REMARK  233  A    between atoms: _544  and  _545
REMARK  234  A    between atoms: _547  and  _549
REMARK  235  A    between atoms: _549  and  _550
REMARK  236  A    between atoms: _553  and  _555
REMARK  237  A    between atoms: _555  and  _556
REMARK  238  A    between atoms: _559  and  _561
REMARK  239  A    between atoms: _561  and  _562
REMARK  240  A    between atoms: _561  and  _564
REMARK  241  A    between atoms: _564  and  _565
REMARK  242  A    between atoms: _568  and  _570
REMARK  243  A    between atoms: _570  and  _571
REMARK  244  A    between atoms: _574  and  _576
REMARK  245  A    between atoms: _576  and  _577
REMARK  246  A    between atoms: _580  and  _582
REMARK  247  A    between atoms: _582  and  _583
REMARK  248  A    between atoms: _585  and  _587
REMARK  249  A    between atoms: _587  and  _588
REMARK  250  A    between atoms: _587  and  _590
REMARK  251  A    between atoms: _590  and  _591
REMARK                            x       y       z     vdW  Elec       q    Type
REMARK                         _______ _______ _______ _____ _____    ______ ____
ROOT
ATOM      1  CG  TYR A   1      30.138  34.869   7.644  0.00  0.00    -0.020 A 
ATOM      2  CD2 TYR A   1      29.569  35.728   8.585  0.00  0.00    -0.001 A 
ATOM      3  CE2 TYR A   1      30.255  36.092   9.740  0.00  0.00    +0.036 A 
ATOM      4  CZ  TYR A   1      31.523  35.589   9.968  0.00  0.00    +0.134 A 
ATOM      5  CE1 TYR A   1      32.109  34.729   9.053  0.00  0.00    +0.036 A 
ATOM      6  CD1 TYR A   1      31.415  34.372   7.900  0.00  0.00    -0.001 A 
ENDROOT
BRANCH   4   7
ATOM      7  OH  TYR A   1      32.199  35.953  11.113  0.00  0.00    -0.506 OA
ATOM      8  HH  TYR A   1      31.635  36.567  11.647  0.00  0.00    +0.292 HD
ENDBRANCH   4   7
BRANCH   1   9
ATOM      9  CB  TYR A   1      29.378  34.468   6.393  0.00  0.00    +0.051 C 
BRANCH   9  10
ATOM     10  CA  TYR A   1      29.569  35.389   5.178  0.00  0.00    +0.137 C 
BRANCH  10  11
ATOM     11  N   TYR A   1      30.932  35.288   4.657  0.00  0.00    -0.239 NA
ATOM     12  H   TYR A   1      31.663  34.835   5.242  0.00  0.00    +0.142 HD
ENDBRANCH  10  11
BRANCH  10  13
ATOM     13  C   TYR A   1      29.181  36.829   5.525  0.00  0.00    +0.224 C 
ATOM     14  O   TYR A   1      27.996  37.157   5.588  0.00  0.00    -0.287 OA
ENDBRANCH  10  13
ENDBRANCH   9  10
ENDBRANCH   1   9
TORSDOF 5
REMARK  Name = ../refined-set-2016/3cda/3cda_pocket.pdb
REMARK  251 active torsions:
REMARK  status: ('A' for Active; 'I' for Inactive)
REMARK    1  A    between atoms: _1  and  _3
REMARK    2  A    between atoms: _3  and  _4
REMARK    3  A    between atoms: _3  and  _6
REMARK    4  A    between atoms: _6  and  _7
REMARK    5  A    between atoms: _12  and  _13
REMARK    6  A    between atoms: _15  and  _17
REMARK    7  A    between atoms: _17  and  _18
REMARK    8  A    between atoms: _17  and  _20
REMARK    9  A    between atoms: _20  and  _21
REMARK   10  A    between atoms: _21  and  _22
REMARK   11  A    between atoms: _25  and  _27
REMARK   12  A    between atoms: _27  and  _28
REMARK   13  A    between atoms: _27  and  _30
REMARK   14  A    between atoms: _30  and  _31
REMARK   15  A    between atoms: _34  and  _36
REMARK   16  A    between atoms: _36  and  _37
REMARK   17  A    between atoms: _36  and  _39
REMARK   18  A    between atoms: _39  and  _40
REMARK   19  A    between atoms: _40  and  _41
REMARK   20  A    between atoms: _41  and  _42
REMARK   21  A    between atoms: _51  and  _53
REMARK   22  A    between atoms: _53  and  _54
REMARK   23  A    between atoms: _57  and  _58
REMARK   24  A    between atoms: _63  and  _65
REMARK   25  A    between atoms: _65  and  _66
REMARK   26  A    between atoms: _65  and  _68
REMARK   27  A    between atoms: _68  and  _69
REMARK   28  A    between atoms: _69  and  _70
REMARK   29  A    between atoms: _72  and  _74
REMARK   30  A    between atoms: _74  and  _75
REMARK   31  A    between atoms: _74  and  _77
REMARK   32  A    between atoms: _77  and  _78
REMARK   33  A    between atoms: _78  and  _79
REMARK   34  A    between atoms: _81  and  _83
REMARK   35  A    between atoms: _83  and  _84
REMARK   36  A    between atoms: _83  and  _86
REMARK   37  A    between atoms: _86  and  _87
REMARK   38  A    between atoms: _92  and  _94
REMARK   39  A    between atoms: _94  and  _95
REMARK   40  A    between atoms: _94  and  _97
REMARK   41  A    between atoms: _97  and  _98
REMARK   42  A    between atoms: _101  and  _103
REMARK   43  A    between atoms: _103  and  _104
REMARK   44  A    between atoms: _103  and  _106
REMARK   45  A    between atoms: _106  and  _107
REMARK   46  A    between atoms: _109  and  _111
REMARK   47  A    between atoms: _111  and  _112
REMARK   48  A    between atoms: _111  and  _114
REMARK   49  A    between atoms: _114  and  _115
REMARK   50  A    between atoms: _115  and  _116
REMARK   51  A    between atoms: _116  and  _117
REMARK   52  A    between atoms: _117  and  _118
REMARK   53  A    between atoms: _122  and  _124
REMARK   54  A    between atoms: _124  and  _125
REMARK   55  A    between atoms: _124  and  _127
REMARK   56  A    between atoms: _127  and  _128
REMARK   57  A    between atoms: _131  and  _133
REMARK   58  A    between atoms: _133  and  _134
REMARK   59  A    between atoms: _133  and  _136
REMARK   60  A    between atoms: _136  and  _137
REMARK   61  A    between atoms: _137  and  _138
REMARK   62  A    between atoms: _141  and  _143
REMARK   63  A    between atoms: _143  and  _144
REMARK   64  A    between atoms: _147  and  _149
REMARK   65  A    between atoms: _149  and  _150
REMARK   66  A    between atoms: _149  and  _152
REMARK   67  A    between atoms: _155  and  _157
REMARK   68  A    between atoms: _157  and  _158
REMARK   69  A    between atoms: _157  and  _160
REMARK   70  A    between atoms: _160  and  _161
REMARK   71  A    between atoms: _163  and  _165
REMARK   72  A    between atoms: _165  and  _166
REMARK   73  A    between atoms: _168  and  _170
REMARK   74  A    between atoms: _170  and  _171
REMARK   75  A    between atoms: _170  and  _173
REMARK   76  A    between atoms: _173  and  _174
REMARK   77  A    between atoms: _179  and  _181
REMARK   78  A    between atoms: _181  and  _182
REMARK   79  A    between atoms: _181  and  _184
REMARK   80  A    between atoms: _184  and  _185
REMARK   81  A    between atoms: _190  and  _191
REMARK   82  A    between atoms: _193  and  _195
REMARK   83  A    between atoms: _195  and  _196
REMARK   84  A    between atoms: _195  and  _198
REMARK   85  A    between atoms: _200  and  _202
REMARK   86  A    between atoms: _202  and  _203
REMARK   87  A    between atoms: _202  and  _205
REMARK   88  A    between atoms: _205  and  _206
REMARK   89  A    between atoms: _209  and  _211
REMARK   90  A    between atoms: _211  and  _212
REMARK   91  A    between atoms: _211  and  _214
REMARK   92  A    between atoms: _214  and  _215
REMARK   93  A    between atoms: _218  and  _220
REMARK   94  A    between atoms: _220  and  _221
REMARK   95  A    between atoms: _220  and  _223
REMARK   96  A    between atoms: _223  and  _224
REMARK   97  A    between atoms: _224  and  _225
REMARK   98  A    between atoms: _225  and  _226
REMARK   99  A    between atoms: _226  and  _227
REMARK  100  A    between atoms: _231  and  _233
REMARK  101  A    between atoms: _233  and  _234
REMARK  102  A    between atoms: _233  and  _236
REMARK  103  A    between atoms: _236  and  _237
REMARK  104  A    between atoms: _237  and  _238
REMARK  105  A    between atoms: _238  and  _239
REMARK  106  A    between atoms: _239  and  _240
REMARK  107  A    between atoms: _244  and  _246
REMARK  108  A    between atoms: _246  and  _247
REMARK  109  A    between atoms: _246  and  _249
REMARK  110  A    between atoms: _249  and  _250
REMARK  111  A    between atoms: _250  and  _251
REMARK  112  A    between atoms: _251  and  _252
REMARK  113  A    between atoms: _261  and  _263
REMARK  114  A    between atoms: _263  and  _264
REMARK  115  A    between atoms: _263  and  _266
REMARK  116  A    between atoms: _266  and  _267
REMARK  117  A    between atoms: _270  and  _272
REMARK  118  A    between atoms: _272  and  _273
REMARK  119  A    between atoms: _276  and  _278
REMARK  120  A    between atoms: _278  and  _279
REMARK  121  A    between atoms: _278  and  _281
REMARK  122  A    between atoms: _281  and  _282
REMARK  123  A    between atoms: _282  and  _283
REMARK  124  A    between atoms: _288  and  _290
REMARK  125  A    between atoms: _290  and  _291
REMARK  126  A    between atoms: _290  and  _293
REMARK  127  A    between atoms: _293  and  _294
REMARK  128  A    between atoms: _294  and  _295
REMARK  129  A    between atoms: _298  and  _300
REMARK  130  A    between atoms: _300  and  _301
REMARK  131  A    between atoms: _303  and  _305
REMARK  132  A    between atoms: _305  and  _306
REMARK  133  A    between atoms: _305  and  _308
REMARK  134  A    between atoms: _310  and  _312
REMARK  135  A    between atoms: _312  and  _313
REMARK  136  A    between atoms: _312  and  _315
REMARK  137  A    between atoms: _315  and  _316
REMARK  138  A    between atoms: _319  and  _321
REMARK  139  A    between atoms: _321  and  _322
REMARK  140  A    between atoms: _321  and  _324
REMARK  141  A    between atoms: _327  and  _329
REMARK  142  A    between atoms: _329  and  _330
REMARK  143  A    between atoms: _333  and  _335
REMARK  144  A    between atoms: _335  and  _336
REMARK  145  A    between atoms: _335  and  _338
REMARK  146  A    between atoms: _338  and  _339
REMARK  147  A    between atoms: _341  and  _343
REMARK  148  A    between atoms: _343  and  _344
REMARK  149  A    between atoms: _343  and  _346
REMARK  150  A    between atoms: _346  and  _347
REMARK  151  A    between atoms: _350  and  _352
REMARK  152  A    between atoms: _352  and  _353
REMARK  153  A    between atoms: _352  and  _355
REMARK  154  A    between atoms: _355  and  _356
REMARK  155  A    between atoms: _361  and  _363
REMARK  156  A    between atoms: _363  and  _364
REMARK  157  A    between atoms: _363  and  _366
REMARK  158  A    between atoms: _366  and  _367
REMARK  159  A    between atoms: _367  and  _368
REMARK  160  A    between atoms: _368  and  _369
REMARK  161  A    between atoms: _378  and  _380
REMARK  162  A    between atoms: _380  and  _381
REMARK  163  A    between atoms: _383  and  _385
REMARK  164  A    between atoms: _385  and  _386
REMARK  165  A    between atoms: _385  and  _388
REMARK  166  A    between atoms: _391  and  _393
REMARK  167  A    between atoms: _393  and  _394
REMARK  168  A    between atoms: _393  and  _396
REMARK  169  A    between atoms: _396  and  _397
REMARK  170  A    between atoms: _400  and  _402
REMARK  171  A    between atoms: _402  and  _403
REMARK  172  A    between atoms: _402  and  _405
REMARK  173  A    between atoms: _405  and  _406
REMARK  174  A    between atoms: _406  and  _407
REMARK  175  A    between atoms: _407  and  _408
REMARK  176  A    between atoms: _408  and  _409
REMARK  177  A    between atoms: _413  and  _415
REMARK  178  A    between atoms: _415  and  _416
REMARK  179  A    between atoms: _415  and  _418
REMARK  180  A    between atoms: _418  and  _419
REMARK  181  A    between atoms: _419  and  _420
REMARK  182  A    between atoms: _420  and  _421
REMARK  183  A    between atoms: _421  and  _422
REMARK  184  A    between atoms: _426  and  _428
REMARK  185  A    between atoms: _428  and  _429
REMARK  186  A    between atoms: _428  and  _431
REMARK  187  A    between atoms: _431  and  _432
REMARK  188  A    between atoms: _437  and  _439
REMARK  189  A    between atoms: _439  and  _440
REMARK  190  A    between atoms: _439  and  _442
REMARK  191  A    between atoms: _442  and  _443
REMARK  192  A    between atoms: _448  and  _450
REMARK  193  A    between atoms: _450  and  _451
REMARK  194  A    between atoms: _454  and  _456
REMARK  195  A    between atoms: _456  and  _457
REMARK  196  A    between atoms: _456  and  _459
REMARK  197  A    between atoms: _459  and  _460
REMARK  198  A    between atoms: _465  and  _467
REMARK  199  A    between atoms: _467  and  _468
REMARK  200  A    between atoms: _471  and  _473
REMARK  201  A    between atoms: _473  and  _474
REMARK  202  A    between atoms: _477  and  _479
REMARK  203  A    between atoms: _479  and  _480
REMARK  204  A    between atoms: _479  and  _482
REMARK  205  A    between atoms: _482  and  _483
REMARK  206  A    between atoms: _488  and  _490
REMARK  207  A    between atoms: _490  and  _491
REMARK  208  A    between atoms: _490  and  _493
REMARK  209  A    between atoms: _493  and  _494
REMARK  210  A    between atoms: _497  and  _499
REMARK  211  A    between atoms: _499  and  _500
REMARK  212  A    between atoms: _502  and  _504
REMARK  213  A    between atoms: _504  and  _505
REMARK  214  A    between atoms: _504  and  _507
REMARK  215  A    between atoms: _507  and  _508
REMARK  216  A    between atoms: _508  and  _509
REMARK  217  A    between atoms: _512  and  _514
REMARK  218  A    between atoms: _514  and  _515
REMARK  219  A    between atoms: _514  and  _517
REMARK  220  A    between atoms: _517  and  _518
REMARK  221  A    between atoms: _521  and  _523
REMARK  222  A    between atoms: _523  and  _524
REMARK  223  A    between atoms: _523  and  _526
REMARK  224  A    between atoms: _526  and  _527
REMARK  225  A    between atoms: _529  and  _531
REMARK  226  A    between atoms: _531  and  _532
REMARK  227  A    between atoms: _531  and  _534
REMARK  228  A    between atoms: _534  and  _535
REMARK  229  A    between atoms: _538  and  _540
REMARK  230  A    between atoms: _540  and  _541
REMARK  231  A    between atoms: _540  and  _543
REMARK  232  A    between atoms: _543  and  _544
REMARK  233  A    between atoms: _544  and  _545
REMARK  234  A    between atoms: _547  and  _549
REMARK  235  A    between atoms: _549  and  _550
REMARK  236  A    between atoms: _553  and  _555
REMARK  237  A    between atoms: _555  and  _556
REMARK  238  A    between atoms: _559  and  _561
REMARK  239  A    between atoms: _561  and  _562
REMARK  240  A    between atoms: _561  and  _564
REMARK  241  A    between atoms: _564  and  _565
REMARK  242  A    between atoms: _568  and  _570
REMARK  243  A    between atoms: _570  and  _571
REMARK  244  A    between atoms: _574  and  _576
REMARK  245  A    between atoms: _576  and  _577
REMARK  246  A    between atoms: _580  and  _582
REMARK  247  A    between atoms: _582  and  _583
REMARK  248  A    between atoms: _585  and  _587
REMARK  249  A    between atoms: _587  and  _588
REMARK  250  A    between atoms: _587  and  _590
REMARK  251  A    between atoms: _590  and  _591
REMARK                            x       y       z     vdW  Elec       q    Type
REMARK                         _______ _______ _______ _____ _____    ______ ____
ROOT
ATOM      1  CA  GLU A   1      23.067  31.586   3.731  0.00  0.00    +0.134 C 
ENDROOT
BRANCH   1   2
ATOM      2  N   GLU A   1      21.761  30.902   3.735  0.00  0.00    -0.239 NA
ATOM      3  H   GLU A   1      21.724  29.871   3.866  0.00  0.00    +0.142 HD
ENDBRANCH   1   2
BRANCH   1   4
ATOM      4  C   GLU A   1      24.021  30.994   2.685  0.00  0.00    +0.224 C 
ATOM      5  O   GLU A   1      23.829  29.873   2.206  0.00  0.00    -0.287 OA
ENDBRANCH   1   4
BRANCH   1   6
ATOM      6  CB  GLU A   1      23.699  31.609   5.135  0.00  0.00    +0.037 C 
BRANCH   6   7
ATOM      7  CG  GLU A   1      24.288  32.964   5.545  0.00  0.00    +0.116 C 
BRANCH   7   8
ATOM      8  CD  GLU A   1      23.618  33.579   6.768  0.00  0.00    +0.365 C 
ATOM      9  OE2 GLU A   1      24.236  33.611   7.853  0.00  0.00    -0.246 OA
ATOM     10  OE1 GLU A   1      22.468  34.037   6.649  0.00  0.00    -0.246 OA
ENDBRANCH   7   8
ENDBRANCH   6   7
ENDBRANCH   1   6
TORSDOF 5
REMARK  Name = ../refined-set-2016/3cda/3cda_pocket.pdb
REMARK  251 active torsions:
REMARK  status: ('A' for Active; 'I' for Inactive)
REMARK    1  A    between atoms: _1  and  _3
REMARK    2  A    between atoms: _3  and  _4
REMARK    3  A    between atoms: _3  and  _6
REMARK    4  A    between atoms: _6  and  _7
REMARK    5  A    between atoms: _12  and  _13
REMARK    6  A    between atoms: _15  and  _17
REMARK    7  A    between atoms: _17  and  _18
REMARK    8  A    between atoms: _17  and  _20
REMARK    9  A    between atoms: _20  and  _21
REMARK   10  A    between atoms: _21  and  _22
REMARK   11  A    between atoms: _25  and  _27
REMARK   12  A    between atoms: _27  and  _28
REMARK   13  A    between atoms: _27  and  _30
REMARK   14  A    between atoms: _30  and  _31
REMARK   15  A    between atoms: _34  and  _36
REMARK   16  A    between atoms: _36  and  _37
REMARK   17  A    between atoms: _36  and  _39
REMARK   18  A    between atoms: _39  and  _40
REMARK   19  A    between atoms: _40  and  _41
REMARK   20  A    between atoms: _41  and  _42
REMARK   21  A    between atoms: _51  and  _53
REMARK   22  A    between atoms: _53  and  _54
REMARK   23  A    between atoms: _57  and  _58
REMARK   24  A    between atoms: _63  and  _65
REMARK   25  A    between atoms: _65  and  _66
REMARK   26  A    between atoms: _65  and  _68
REMARK   27  A    between atoms: _68  and  _69
REMARK   28  A    between atoms: _69  and  _70
REMARK   29  A    between atoms: _72  and  _74
REMARK   30  A    between atoms: _74  and  _75
REMARK   31  A    between atoms: _74  and  _77
REMARK   32  A    between atoms: _77  and  _78
REMARK   33  A    between atoms: _78  and  _79
REMARK   34  A    between atoms: _81  and  _83
REMARK   35  A    between atoms: _83  and  _84
REMARK   36  A    between atoms: _83  and  _86
REMARK   37  A    between atoms: _86  and  _87
REMARK   38  A    between atoms: _92  and  _94
REMARK   39  A    between atoms: _94  and  _95
REMARK   40  A    between atoms: _94  and  _97
REMARK   41  A    between atoms: _97  and  _98
REMARK   42  A    between atoms: _101  and  _103
REMARK   43  A    between atoms: _103  and  _104
REMARK   44  A    between atoms: _103  and  _106
REMARK   45  A    between atoms: _106  and  _107
REMARK   46  A    between atoms: _109  and  _111
REMARK   47  A    between atoms: _111  and  _112
REMARK   48  A    between atoms: _111  and  _114
REMARK   49  A    between atoms: _114  and  _115
REMARK   50  A    between atoms: _115  and  _116
REMARK   51  A    between atoms: _116  and  _117
REMARK   52  A    between atoms: _117  and  _118
REMARK   53  A    between atoms: _122  and  _124
REMARK   54  A    between atoms: _124  and  _125
REMARK   55  A    between atoms: _124  and  _127
REMARK   56  A    between atoms: _127  and  _128
REMARK   57  A    between atoms: _131  and  _133
REMARK   58  A    between atoms: _133  and  _134
REMARK   59  A    between atoms: _133  and  _136
REMARK   60  A    between atoms: _136  and  _137
REMARK   61  A    between atoms: _137  and  _138
REMARK   62  A    between atoms: _141  and  _143
REMARK   63  A    between atoms: _143  and  _144
REMARK   64  A    between atoms: _147  and  _149
REMARK   65  A    between atoms: _149  and  _150
REMARK   66  A    between atoms: _149  and  _152
REMARK   67  A    between atoms: _155  and  _157
REMARK   68  A    between atoms: _157  and  _158
REMARK   69  A    between atoms: _157  and  _160
REMARK   70  A    between atoms: _160  and  _161
REMARK   71  A    between atoms: _163  and  _165
REMARK   72  A    between atoms: _165  and  _166
REMARK   73  A    between atoms: _168  and  _170
REMARK   74  A    between atoms: _170  and  _171
REMARK   75  A    between atoms: _170  and  _173
REMARK   76  A    between atoms: _173  and  _174
REMARK   77  A    between atoms: _179  and  _181
REMARK   78  A    between atoms: _181  and  _182
REMARK   79  A    between atoms: _181  and  _184
REMARK   80  A    between atoms: _184  and  _185
REMARK   81  A    between atoms: _190  and  _191
REMARK   82  A    between atoms: _193  and  _195
REMARK   83  A    between atoms: _195  and  _196
REMARK   84  A    between atoms: _195  and  _198
REMARK   85  A    between atoms: _200  and  _202
REMARK   86  A    between atoms: _202  and  _203
REMARK   87  A    between atoms: _202  and  _205
REMARK   88  A    between atoms: _205  and  _206
REMARK   89  A    between atoms: _209  and  _211
REMARK   90  A    between atoms: _211  and  _212
REMARK   91  A    between atoms: _211  and  _214
REMARK   92  A    between atoms: _214  and  _215
REMARK   93  A    between atoms: _218  and  _220
REMARK   94  A    between atoms: _220  and  _221
REMARK   95  A    between atoms: _220  and  _223
REMARK   96  A    between atoms: _223  and  _224
REMARK   97  A    between atoms: _224  and  _225
REMARK   98  A    between atoms: _225  and  _226
REMARK   99  A    between atoms: _226  and  _227
REMARK  100  A    between atoms: _231  and  _233
REMARK  101  A    between atoms: _233  and  _234
REMARK  102  A    between atoms: _233  and  _236
REMARK  103  A    between atoms: _236  and  _237
REMARK  104  A    between atoms: _237  and  _238
REMARK  105  A    between atoms: _238  and  _239
REMARK  106  A    between atoms: _239  and  _240
REMARK  107  A    between atoms: _244  and  _246
REMARK  108  A    between atoms: _246  and  _247
REMARK  109  A    between atoms: _246  and  _249
REMARK  110  A    between atoms: _249  and  _250
REMARK  111  A    between atoms: _250  and  _251
REMARK  112  A    between atoms: _251  and  _252
REMARK  113  A    between atoms: _261  and  _263
REMARK  114  A    between atoms: _263  and  _264
REMARK  115  A    between atoms: _263  and  _266
REMARK  116  A    between atoms: _266  and  _267
REMARK  117  A    between atoms: _270  and  _272
REMARK  118  A    between atoms: _272  and  _273
REMARK  119  A    between atoms: _276  and  _278
REMARK  120  A    between atoms: _278  and  _279
REMARK  121  A    between atoms: _278  and  _281
REMARK  122  A    between atoms: _281  and  _282
REMARK  123  A    between atoms: _282  and  _283
REMARK  124  A    between atoms: _288  and  _290
REMARK  125  A    between atoms: _290  and  _291
REMARK  126  A    between atoms: _290  and  _293
REMARK  127  A    between atoms: _293  and  _294
REMARK  128  A    between atoms: _294  and  _295
REMARK  129  A    between atoms: _298  and  _300
REMARK  130  A    between atoms: _300  and  _301
REMARK  131  A    between atoms: _303  and  _305
REMARK  132  A    between atoms: _305  and  _306
REMARK  133  A    between atoms: _305  and  _308
REMARK  134  A    between atoms: _310  and  _312
REMARK  135  A    between atoms: _312  and  _313
REMARK  136  A    between atoms: _312  and  _315
REMARK  137  A    between atoms: _315  and  _316
REMARK  138  A    between atoms: _319  and  _321
REMARK  139  A    between atoms: _321  and  _322
REMARK  140  A    between atoms: _321  and  _324
REMARK  141  A    between atoms: _327  and  _329
REMARK  142  A    between atoms: _329  and  _330
REMARK  143  A    between atoms: _333  and  _335
REMARK  144  A    between atoms: _335  and  _336
REMARK  145  A    between atoms: _335  and  _338
REMARK  146  A    between atoms: _338  and  _339
REMARK  147  A    between atoms: _341  and  _343
REMARK  148  A    between atoms: _343  and  _344
REMARK  149  A    between atoms: _343  and  _346
REMARK  150  A    between atoms: _346  and  _347
REMARK  151  A    between atoms: _350  and  _352
REMARK  152  A    between atoms: _352  and  _353
REMARK  153  A    between atoms: _352  and  _355
REMARK  154  A    between atoms: _355  and  _356
REMARK  155  A    between atoms: _361  and  _363
REMARK  156  A    between atoms: _363  and  _364
REMARK  157  A    between atoms: _363  and  _366
REMARK  158  A    between atoms: _366  and  _367
REMARK  159  A    between atoms: _367  and  _368
REMARK  160  A    between atoms: _368  and  _369
REMARK  161  A    between atoms: _378  and  _380
REMARK  162  A    between atoms: _380  and  _381
REMARK  163  A    between atoms: _383  and  _385
REMARK  164  A    between atoms: _385  and  _386
REMARK  165  A    between atoms: _385  and  _388
REMARK  166  A    between atoms: _391  and  _393
REMARK  167  A    between atoms: _393  and  _394
REMARK  168  A    between atoms: _393  and  _396
REMARK  169  A    between atoms: _396  and  _397
REMARK  170  A    between atoms: _400  and  _402
REMARK  171  A    between atoms: _402  and  _403
REMARK  172  A    between atoms: _402  and  _405
REMARK  173  A    between atoms: _405  and  _406
REMARK  174  A    between atoms: _406  and  _407
REMARK  175  A    between atoms: _407  and  _408
REMARK  176  A    between atoms: _408  and  _409
REMARK  177  A    between atoms: _413  and  _415
REMARK  178  A    between atoms: _415  and  _416
REMARK  179  A    between atoms: _415  and  _418
REMARK  180  A    between atoms: _418  and  _419
REMARK  181  A    between atoms: _419  and  _420
REMARK  182  A    between atoms: _420  and  _421
REMARK  183  A    between atoms: _421  and  _422
REMARK  184  A    between atoms: _426  and  _428
REMARK  185  A    between atoms: _428  and  _429
REMARK  186  A    between atoms: _428  and  _431
REMARK  187  A    between atoms: _431  and  _432
REMARK  188  A    between atoms: _437  and  _439
REMARK  189  A    between atoms: _439  and  _440
REMARK  190  A    between atoms: _439  and  _442
REMARK  191  A    between atoms: _442  and  _443
REMARK  192  A    between atoms: _448  and  _450
REMARK  193  A    between atoms: _450  and  _451
REMARK  194  A    between atoms: _454  and  _456
REMARK  195  A    between atoms: _456  and  _457
REMARK  196  A    between atoms: _456  and  _459
REMARK  197  A    between atoms: _459  and  _460
REMARK  198  A    between atoms: _465  and  _467
REMARK  199  A    between atoms: _467  and  _468
REMARK  200  A    between atoms: _471  and  _473
REMARK  201  A    between atoms: _473  and  _474
REMARK  202  A    between atoms: _477  and  _479
REMARK  203  A    between atoms: _479  and  _480
REMARK  204  A    between atoms: _479  and  _482
REMARK  205  A    between atoms: _482  and  _483
REMARK  206  A    between atoms: _488  and  _490
REMARK  207  A    between atoms: _490  and  _491
REMARK  208  A    between atoms: _490  and  _493
REMARK  209  A    between atoms: _493  and  _494
REMARK  210  A    between atoms: _497  and  _499
REMARK  211  A    between atoms: _499  and  _500
REMARK  212  A    between atoms: _502  and  _504
REMARK  213  A    between atoms: _504  and  _505
REMARK  214  A    between atoms: _504  and  _507
REMARK  215  A    between atoms: _507  and  _508
REMARK  216  A    between atoms: _508  and  _509
REMARK  217  A    between atoms: _512  and  _514
REMARK  218  A    between atoms: _514  and  _515
REMARK  219  A    between atoms: _514  and  _517
REMARK  220  A    between atoms: _517  and  _518
REMARK  221  A    between atoms: _521  and  _523
REMARK  222  A    between atoms: _523  and  _524
REMARK  223  A    between atoms: _523  and  _526
REMARK  224  A    between atoms: _526  and  _527
REMARK  225  A    between atoms: _529  and  _531
REMARK  226  A    between atoms: _531  and  _532
REMARK  227  A    between atoms: _531  and  _534
REMARK  228  A    between atoms: _534  and  _535
REMARK  229  A    between atoms: _538  and  _540
REMARK  230  A    between atoms: _540  and  _541
REMARK  231  A    between atoms: _540  and  _543
REMARK  232  A    between atoms: _543  and  _544
REMARK  233  A    between atoms: _544  and  _545
REMARK  234  A    between atoms: _547  and  _549
REMARK  235  A    between atoms: _549  and  _550
REMARK  236  A    between atoms: _553  and  _555
REMARK  237  A    between atoms: _555  and  _556
REMARK  238  A    between atoms: _559  and  _561
REMARK  239  A    between atoms: _561  and  _562
REMARK  240  A    between atoms: _561  and  _564
REMARK  241  A    between atoms: _564  and  _565
REMARK  242  A    between atoms: _568  and  _570
REMARK  243  A    between atoms: _570  and  _571
REMARK  244  A    between atoms: _574  and  _576
REMARK  245  A    between atoms: _576  and  _577
REMARK  246  A    between atoms: _580  and  _582
REMARK  247  A    between atoms: _582  and  _583
REMARK  248  A    between atoms: _585  and  _587
REMARK  249  A    between atoms: _587  and  _588
REMARK  250  A    between atoms: _587  and  _590
REMARK  251  A    between atoms: _590  and  _591
REMARK                            x       y       z     vdW  Elec       q    Type
REMARK                         _______ _______ _______ _____ _____    ______ ____
ROOT
ATOM      1  CA  ARG A   2       8.953  19.158  20.308  0.00  0.00    +0.149 C 
ENDROOT
BRANCH   1   3
ATOM      2  C   THR A   1       6.945  19.252  18.931  0.00  0.00    +0.241 C 
ATOM      3  N   ARG A   2       7.516  19.194  20.127  0.00  0.00    -0.297 N 
ATOM      4  H   ARG A   2       6.907  19.174  20.970  0.00  0.00    +0.150 HD
ATOM      5  O   THR A   1       7.560  19.460  17.897  0.00  0.00    -0.274 OA
BRANCH   2   6
ATOM      6  CA  THR A   1       5.442  19.023  18.934  0.00  0.00    +0.172 C 
BRANCH   6   7
ATOM      7  N   THR A   1       4.772  19.513  17.733  0.00  0.00    -0.236 NA
ATOM      8  H   THR A   1       5.079  19.170  16.800  0.00  0.00    +0.142 HD
ENDBRANCH   6   7
BRANCH   6   9
ATOM      9  CB  THR A   1       5.213  17.519  19.118  0.00  0.00    +0.135 C 
ATOM     10  CG2 THR A   1       3.732  17.141  18.971  0.00  0.00    +0.034 C 
BRANCH   9  11
ATOM     11  OG1 THR A   1       5.883  16.806  18.072  0.00  0.00    -0.383 OA
ATOM     12  HG1 THR A   1       5.736  15.834  18.190  0.00  0.00    +0.210 HD
ENDBRANCH   9  11
ENDBRANCH   6   9
ENDBRANCH   2   6
ENDBRANCH   1   3
BRANCH   1  13
ATOM     13  C   ARG A   2       9.224  18.249  21.503  0.00  0.00    +0.241 C 
ATOM     14  O   ARG A   2       8.569  18.365  22.531  0.00  0.00    -0.273 OA
ATOM     15  N   GLY A   3      10.172  17.331  21.355  0.00  0.00    -0.295 N 
ATOM     16  H   GLY A   3      10.810  17.396  20.536  0.00  0.00    +0.150 HD
BRANCH  15  17
ATOM     17  CA  GLY A   3      10.349  16.239  22.296  0.00  0.00    +0.176 C 
BRANCH  17  18
ATOM     18  C   GLY A   3      11.740  16.183  22.911  0.00  0.00    +0.246 C 
ATOM     19  N   PRO A   4      12.059  17.110  23.824  0.00  0.00    -0.273 N 
ATOM     20  CA  PRO A   4      13.362  17.128  24.513  0.00  0.00    +0.140 C 
ATOM     21  CB  PRO A   4      13.241  18.334  25.448  0.00  0.00    +0.030 C 
ATOM     22  CG  PRO A   4      11.777  18.500  25.633  0.00  0.00    +0.024 C 
ATOM     23  CD  PRO A   4      11.209  18.223  24.280  0.00  0.00    +0.094 C 
ATOM     24  O   GLY A   3      12.514  15.292  22.550  0.00  0.00    -0.273 OA
BRANCH  20  25
ATOM     25  C   PRO A   4      13.630  15.895  25.358  0.00  0.00    +0.227 C 
ATOM     26  O   PRO A   4      12.687  15.230  25.788  0.00  0.00    -0.286 OA
ENDBRANCH  20  25
ENDBRANCH  17  18
ENDBRANCH  15  17
ENDBRANCH   1  13
BRANCH   1  27
ATOM     27  CB  ARG A   2       9.483  20.579  20.511  0.00  0.00    +0.033 C 
BRANCH  27  28
ATOM     28  CG  ARG A   2      10.972  20.700  20.665  0.00  0.00    +0.045 C 
BRANCH  28  29
ATOM     29  CD  ARG A   2      11.757  20.037  19.574  0.00  0.00    +0.174 C 
BRANCH  29  30
ATOM     30  NE  ARG A   2      12.103  20.940  18.487  0.00  0.00    -0.265 N 
ATOM     31  HE  ARG A   2      11.919  21.955  18.620  0.00  0.00    +0.259 HD
ATOM     32  CZ  ARG A   2      12.639  20.551  17.336  0.00  0.00    +0.342 C 
ATOM     33  NH2 ARG A   2      12.866  19.267  17.091  0.00  0.00    -0.292 N 
ATOM     34 HH21 ARG A   2      12.624  18.551  17.805  0.00  0.00    +0.255 HD
ATOM     35 HH22 ARG A   2      13.286  18.977  16.185  0.00  0.00    +0.255 HD
ATOM     36  NH1 ARG A   2      12.944  21.458  16.425  0.00  0.00    -0.292 N 
ATOM     37 HH11 ARG A   2      12.764  22.465  16.613  0.00  0.00    +0.255 HD
ATOM     38 HH12 ARG A   2      13.364  21.165  15.520  0.00  0.00    +0.255 HD
ENDBRANCH  29  30
ENDBRANCH  28  29
ENDBRANCH  27  28
ENDBRANCH   1  27
TORSDOF 13
REMARK  Name = ../refined-set-2016/3cda/3cda_pocket.pdb
REMARK  251 active torsions:
REMARK  status: ('A' for Active; 'I' for Inactive)
REMARK    1  A    between atoms: _1  and  _3
REMARK    2  A    between atoms: _3  and  _4
REMARK    3  A    between atoms: _3  and  _6
REMARK    4  A    between atoms: _6  and  _7
REMARK    5  A    between atoms: _12  and  _13
REMARK    6  A    between atoms: _15  and  _17
REMARK    7  A    between atoms: _17  and  _18
REMARK    8  A    between atoms: _17  and  _20
REMARK    9  A    between atoms: _20  and  _21
REMARK   10  A    between atoms: _21  and  _22
REMARK   11  A    between atoms: _25  and  _27
REMARK   12  A    between atoms: _27  and  _28
REMARK   13  A    between atoms: _27  and  _30
REMARK   14  A    between atoms: _30  and  _31
REMARK   15  A    between atoms: _34  and  _36
REMARK   16  A    between atoms: _36  and  _37
REMARK   17  A    between atoms: _36  and  _39
REMARK   18  A    between atoms: _39  and  _40
REMARK   19  A    between atoms: _40  and  _41
REMARK   20  A    between atoms: _41  and  _42
REMARK   21  A    between atoms: _51  and  _53
REMARK   22  A    between atoms: _53  and  _54
REMARK   23  A    between atoms: _57  and  _58
REMARK   24  A    between atoms: _63  and  _65
REMARK   25  A    between atoms: _65  and  _66
REMARK   26  A    between atoms: _65  and  _68
REMARK   27  A    between atoms: _68  and  _69
REMARK   28  A    between atoms: _69  and  _70
REMARK   29  A    between atoms: _72  and  _74
REMARK   30  A    between atoms: _74  and  _75
REMARK   31  A    between atoms: _74  and  _77
REMARK   32  A    between atoms: _77  and  _78
REMARK   33  A    between atoms: _78  and  _79
REMARK   34  A    between atoms: _81  and  _83
REMARK   35  A    between atoms: _83  and  _84
REMARK   36  A    between atoms: _83  and  _86
REMARK   37  A    between atoms: _86  and  _87
REMARK   38  A    between atoms: _92  and  _94
REMARK   39  A    between atoms: _94  and  _95
REMARK   40  A    between atoms: _94  and  _97
REMARK   41  A    between atoms: _97  and  _98
REMARK   42  A    between atoms: _101  and  _103
REMARK   43  A    between atoms: _103  and  _104
REMARK   44  A    between atoms: _103  and  _106
REMARK   45  A    between atoms: _106  and  _107
REMARK   46  A    between atoms: _109  and  _111
REMARK   47  A    between atoms: _111  and  _112
REMARK   48  A    between atoms: _111  and  _114
REMARK   49  A    between atoms: _114  and  _115
REMARK   50  A    between atoms: _115  and  _116
REMARK   51  A    between atoms: _116  and  _117
REMARK   52  A    between atoms: _117  and  _118
REMARK   53  A    between atoms: _122  and  _124
REMARK   54  A    between atoms: _124  and  _125
REMARK   55  A    between atoms: _124  and  _127
REMARK   56  A    between atoms: _127  and  _128
REMARK   57  A    between atoms: _131  and  _133
REMARK   58  A    between atoms: _133  and  _134
REMARK   59  A    between atoms: _133  and  _136
REMARK   60  A    between atoms: _136  and  _137
REMARK   61  A    between atoms: _137  and  _138
REMARK   62  A    between atoms: _141  and  _143
REMARK   63  A    between atoms: _143  and  _144
REMARK   64  A    between atoms: _147  and  _149
REMARK   65  A    between atoms: _149  and  _150
REMARK   66  A    between atoms: _149  and  _152
REMARK   67  A    between atoms: _155  and  _157
REMARK   68  A    between atoms: _157  and  _158
REMARK   69  A    between atoms: _157  and  _160
REMARK   70  A    between atoms: _160  and  _161
REMARK   71  A    between atoms: _163  and  _165
REMARK   72  A    between atoms: _165  and  _166
REMARK   73  A    between atoms: _168  and  _170
REMARK   74  A    between atoms: _170  and  _171
REMARK   75  A    between atoms: _170  and  _173
REMARK   76  A    between atoms: _173  and  _174
REMARK   77  A    between atoms: _179  and  _181
REMARK   78  A    between atoms: _181  and  _182
REMARK   79  A    between atoms: _181  and  _184
REMARK   80  A    between atoms: _184  and  _185
REMARK   81  A    between atoms: _190  and  _191
REMARK   82  A    between atoms: _193  and  _195
REMARK   83  A    between atoms: _195  and  _196
REMARK   84  A    between atoms: _195  and  _198
REMARK   85  A    between atoms: _200  and  _202
REMARK   86  A    between atoms: _202  and  _203
REMARK   87  A    between atoms: _202  and  _205
REMARK   88  A    between atoms: _205  and  _206
REMARK   89  A    between atoms: _209  and  _211
REMARK   90  A    between atoms: _211  and  _212
REMARK   91  A    between atoms: _211  and  _214
REMARK   92  A    between atoms: _214  and  _215
REMARK   93  A    between atoms: _218  and  _220
REMARK   94  A    between atoms: _220  and  _221
REMARK   95  A    between atoms: _220  and  _223
REMARK   96  A    between atoms: _223  and  _224
REMARK   97  A    between atoms: _224  and  _225
REMARK   98  A    between atoms: _225  and  _226
REMARK   99  A    between atoms: _226  and  _227
REMARK  100  A    between atoms: _231  and  _233
REMARK  101  A    between atoms: _233  and  _234
REMARK  102  A    between atoms: _233  and  _236
REMARK  103  A    between atoms: _236  and  _237
REMARK  104  A    between atoms: _237  and  _238
REMARK  105  A    between atoms: _238  and  _239
REMARK  106  A    between atoms: _239  and  _240
REMARK  107  A    between atoms: _244  and  _246
REMARK  108  A    between atoms: _246  and  _247
REMARK  109  A    between atoms: _246  and  _249
REMARK  110  A    between atoms: _249  and  _250
REMARK  111  A    between atoms: _250  and  _251
REMARK  112  A    between atoms: _251  and  _252
REMARK  113  A    between atoms: _261  and  _263
REMARK  114  A    between atoms: _263  and  _264
REMARK  115  A    between atoms: _263  and  _266
REMARK  116  A    between atoms: _266  and  _267
REMARK  117  A    between atoms: _270  and  _272
REMARK  118  A    between atoms: _272  and  _273
REMARK  119  A    between atoms: _276  and  _278
REMARK  120  A    between atoms: _278  and  _279
REMARK  121  A    between atoms: _278  and  _281
REMARK  122  A    between atoms: _281  and  _282
REMARK  123  A    between atoms: _282  and  _283
REMARK  124  A    between atoms: _288  and  _290
REMARK  125  A    between atoms: _290  and  _291
REMARK  126  A    between atoms: _290  and  _293
REMARK  127  A    between atoms: _293  and  _294
REMARK  128  A    between atoms: _294  and  _295
REMARK  129  A    between atoms: _298  and  _300
REMARK  130  A    between atoms: _300  and  _301
REMARK  131  A    between atoms: _303  and  _305
REMARK  132  A    between atoms: _305  and  _306
REMARK  133  A    between atoms: _305  and  _308
REMARK  134  A    between atoms: _310  and  _312
REMARK  135  A    between atoms: _312  and  _313
REMARK  136  A    between atoms: _312  and  _315
REMARK  137  A    between atoms: _315  and  _316
REMARK  138  A    between atoms: _319  and  _321
REMARK  139  A    between atoms: _321  and  _322
REMARK  140  A    between atoms: _321  and  _324
REMARK  141  A    between atoms: _327  and  _329
REMARK  142  A    between atoms: _329  and  _330
REMARK  143  A    between atoms: _333  and  _335
REMARK  144  A    between atoms: _335  and  _336
REMARK  145  A    between atoms: _335  and  _338
REMARK  146  A    between atoms: _338  and  _339
REMARK  147  A    between atoms: _341  and  _343
REMARK  148  A    between atoms: _343  and  _344
REMARK  149  A    between atoms: _343  and  _346
REMARK  150  A    between atoms: _346  and  _347
REMARK  151  A    between atoms: _350  and  _352
REMARK  152  A    between atoms: _352  and  _353
REMARK  153  A    between atoms: _352  and  _355
REMARK  154  A    between atoms: _355  and  _356
REMARK  155  A    between atoms: _361  and  _363
REMARK  156  A    between atoms: _363  and  _364
REMARK  157  A    between atoms: _363  and  _366
REMARK  158  A    between atoms: _366  and  _367
REMARK  159  A    between atoms: _367  and  _368
REMARK  160  A    between atoms: _368  and  _369
REMARK  161  A    between atoms: _378  and  _380
REMARK  162  A    between atoms: _380  and  _381
REMARK  163  A    between atoms: _383  and  _385
REMARK  164  A    between atoms: _385  and  _386
REMARK  165  A    between atoms: _385  and  _388
REMARK  166  A    between atoms: _391  and  _393
REMARK  167  A    between atoms: _393  and  _394
REMARK  168  A    between atoms: _393  and  _396
REMARK  169  A    between atoms: _396  and  _397
REMARK  170  A    between atoms: _400  and  _402
REMARK  171  A    between atoms: _402  and  _403
REMARK  172  A    between atoms: _402  and  _405
REMARK  173  A    between atoms: _405  and  _406
REMARK  174  A    between atoms: _406  and  _407
REMARK  175  A    between atoms: _407  and  _408
REMARK  176  A    between atoms: _408  and  _409
REMARK  177  A    between atoms: _413  and  _415
REMARK  178  A    between atoms: _415  and  _416
REMARK  179  A    between atoms: _415  and  _418
REMARK  180  A    between atoms: _418  and  _419
REMARK  181  A    between atoms: _419  and  _420
REMARK  182  A    between atoms: _420  and  _421
REMARK  183  A    between atoms: _421  and  _422
REMARK  184  A    between atoms: _426  and  _428
REMARK  185  A    between atoms: _428  and  _429
REMARK  186  A    between atoms: _428  and  _431
REMARK  187  A    between atoms: _431  and  _432
REMARK  188  A    between atoms: _437  and  _439
REMARK  189  A    between atoms: _439  and  _440
REMARK  190  A    between atoms: _439  and  _442
REMARK  191  A    between atoms: _442  and  _443
REMARK  192  A    between atoms: _448  and  _450
REMARK  193  A    between atoms: _450  and  _451
REMARK  194  A    between atoms: _454  and  _456
REMARK  195  A    between atoms: _456  and  _457
REMARK  196  A    between atoms: _456  and  _459
REMARK  197  A    between atoms: _459  and  _460
REMARK  198  A    between atoms: _465  and  _467
REMARK  199  A    between atoms: _467  and  _468
REMARK  200  A    between atoms: _471  and  _473
REMARK  201  A    between atoms: _473  and  _474
REMARK  202  A    between atoms: _477  and  _479
REMARK  203  A    between atoms: _479  and  _480
REMARK  204  A    between atoms: _479  and  _482
REMARK  205  A    between atoms: _482  and  _483
REMARK  206  A    between atoms: _488  and  _490
REMARK  207  A    between atoms: _490  and  _491
REMARK  208  A    between atoms: _490  and  _493
REMARK  209  A    between atoms: _493  and  _494
REMARK  210  A    between atoms: _497  and  _499
REMARK  211  A    between atoms: _499  and  _500
REMARK  212  A    between atoms: _502  and  _504
REMARK  213  A    between atoms: _504  and  _505
REMARK  214  A    between atoms: _504  and  _507
REMARK  215  A    between atoms: _507  and  _508
REMARK  216  A    between atoms: _508  and  _509
REMARK  217  A    between atoms: _512  and  _514
REMARK  218  A    between atoms: _514  and  _515
REMARK  219  A    between atoms: _514  and  _517
REMARK  220  A    between atoms: _517  and  _518
REMARK  221  A    between atoms: _521  and  _523
REMARK  222  A    between atoms: _523  and  _524
REMARK  223  A    between atoms: _523  and  _526
REMARK  224  A    between atoms: _526  and  _527
REMARK  225  A    between atoms: _529  and  _531
REMARK  226  A    between atoms: _531  and  _532
REMARK  227  A    between atoms: _531  and  _534
REMARK  228  A    between atoms: _534  and  _535
REMARK  229  A    between atoms: _538  and  _540
REMARK  230  A    between atoms: _540  and  _541
REMARK  231  A    between atoms: _540  and  _543
REMARK  232  A    between atoms: _543  and  _544
REMARK  233  A    between atoms: _544  and  _545
REMARK  234  A    between atoms: _547  and  _549
REMARK  235  A    between atoms: _549  and  _550
REMARK  236  A    between atoms: _553  and  _555
REMARK  237  A    between atoms: _555  and  _556
REMARK  238  A    between atoms: _559  and  _561
REMARK  239  A    between atoms: _561  and  _562
REMARK  240  A    between atoms: _561  and  _564
REMARK  241  A    between atoms: _564  and  _565
REMARK  242  A    between atoms: _568  and  _570
REMARK  243  A    between atoms: _570  and  _571
REMARK  244  A    between atoms: _574  and  _576
REMARK  245  A    between atoms: _576  and  _577
REMARK  246  A    between atoms: _580  and  _582
REMARK  247  A    between atoms: _582  and  _583
REMARK  248  A    between atoms: _585  and  _587
REMARK  249  A    between atoms: _587  and  _588
REMARK  250  A    between atoms: _587  and  _590
REMARK  251  A    between atoms: _590  and  _591
REMARK                            x       y       z     vdW  Elec       q    Type
REMARK                         _______ _______ _______ _____ _____    ______ ____
ROOT
ATOM      1  CA  MET A   1       4.184  25.418  11.277  0.00  0.00    +0.134 C 
ENDROOT
BRANCH   1   2
ATOM      2  N   MET A   1       3.897  26.833  11.072  0.00  0.00    -0.239 NA
ATOM      3  H   MET A   1       4.461  27.380  10.390  0.00  0.00    +0.142 HD
ENDBRANCH   1   2
BRANCH   1   4
ATOM      4  C   MET A   1       4.541  25.201  12.755  0.00  0.00    +0.224 C 
ATOM      5  O   MET A   1       4.159  24.202  13.355  0.00  0.00    -0.287 OA
ENDBRANCH   1   4
BRANCH   1   6
ATOM      6  CB  MET A   1       5.295  24.952  10.335  0.00  0.00    +0.037 C 
BRANCH   6   7
ATOM      7  CG  MET A   1       5.632  23.480  10.465  0.00  0.00    +0.059 C 
BRANCH   7   8
ATOM      8  SD  MET A   1       7.044  23.282  11.572  0.00  0.00    -0.139 S 
ATOM      9  CE  MET A   1       8.395  23.782  10.376  0.00  0.00    +0.069 C 
ENDBRANCH   7   8
ENDBRANCH   6   7
ENDBRANCH   1   6
TORSDOF 5
REMARK  Name = ../refined-set-2016/3cda/3cda_pocket.pdb
REMARK  251 active torsions:
REMARK  status: ('A' for Active; 'I' for Inactive)
REMARK    1  A    between atoms: _1  and  _3
REMARK    2  A    between atoms: _3  and  _4
REMARK    3  A    between atoms: _3  and  _6
REMARK    4  A    between atoms: _6  and  _7
REMARK    5  A    between atoms: _12  and  _13
REMARK    6  A    between atoms: _15  and  _17
REMARK    7  A    between atoms: _17  and  _18
REMARK    8  A    between atoms: _17  and  _20
REMARK    9  A    between atoms: _20  and  _21
REMARK   10  A    between atoms: _21  and  _22
REMARK   11  A    between atoms: _25  and  _27
REMARK   12  A    between atoms: _27  and  _28
REMARK   13  A    between atoms: _27  and  _30
REMARK   14  A    between atoms: _30  and  _31
REMARK   15  A    between atoms: _34  and  _36
REMARK   16  A    between atoms: _36  and  _37
REMARK   17  A    between atoms: _36  and  _39
REMARK   18  A    between atoms: _39  and  _40
REMARK   19  A    between atoms: _40  and  _41
REMARK   20  A    between atoms: _41  and  _42
REMARK   21  A    between atoms: _51  and  _53
REMARK   22  A    between atoms: _53  and  _54
REMARK   23  A    between atoms: _57  and  _58
REMARK   24  A    between atoms: _63  and  _65
REMARK   25  A    between atoms: _65  and  _66
REMARK   26  A    between atoms: _65  and  _68
REMARK   27  A    between atoms: _68  and  _69
REMARK   28  A    between atoms: _69  and  _70
REMARK   29  A    between atoms: _72  and  _74
REMARK   30  A    between atoms: _74  and  _75
REMARK   31  A    between atoms: _74  and  _77
REMARK   32  A    between atoms: _77  and  _78
REMARK   33  A    between atoms: _78  and  _79
REMARK   34  A    between atoms: _81  and  _83
REMARK   35  A    between atoms: _83  and  _84
REMARK   36  A    between atoms: _83  and  _86
REMARK   37  A    between atoms: _86  and  _87
REMARK   38  A    between atoms: _92  and  _94
REMARK   39  A    between atoms: _94  and  _95
REMARK   40  A    between atoms: _94  and  _97
REMARK   41  A    between atoms: _97  and  _98
REMARK   42  A    between atoms: _101  and  _103
REMARK   43  A    between atoms: _103  and  _104
REMARK   44  A    between atoms: _103  and  _106
REMARK   45  A    between atoms: _106  and  _107
REMARK   46  A    between atoms: _109  and  _111
REMARK   47  A    between atoms: _111  and  _112
REMARK   48  A    between atoms: _111  and  _114
REMARK   49  A    between atoms: _114  and  _115
REMARK   50  A    between atoms: _115  and  _116
REMARK   51  A    between atoms: _116  and  _117
REMARK   52  A    between atoms: _117  and  _118
REMARK   53  A    between atoms: _122  and  _124
REMARK   54  A    between atoms: _124  and  _125
REMARK   55  A    between atoms: _124  and  _127
REMARK   56  A    between atoms: _127  and  _128
REMARK   57  A    between atoms: _131  and  _133
REMARK   58  A    between atoms: _133  and  _134
REMARK   59  A    between atoms: _133  and  _136
REMARK   60  A    between atoms: _136  and  _137
REMARK   61  A    between atoms: _137  and  _138
REMARK   62  A    between atoms: _141  and  _143
REMARK   63  A    between atoms: _143  and  _144
REMARK   64  A    between atoms: _147  and  _149
REMARK   65  A    between atoms: _149  and  _150
REMARK   66  A    between atoms: _149  and  _152
REMARK   67  A    between atoms: _155  and  _157
REMARK   68  A    between atoms: _157  and  _158
REMARK   69  A    between atoms: _157  and  _160
REMARK   70  A    between atoms: _160  and  _161
REMARK   71  A    between atoms: _163  and  _165
REMARK   72  A    between atoms: _165  and  _166
REMARK   73  A    between atoms: _168  and  _170
REMARK   74  A    between atoms: _170  and  _171
REMARK   75  A    between atoms: _170  and  _173
REMARK   76  A    between atoms: _173  and  _174
REMARK   77  A    between atoms: _179  and  _181
REMARK   78  A    between atoms: _181  and  _182
REMARK   79  A    between atoms: _181  and  _184
REMARK   80  A    between atoms: _184  and  _185
REMARK   81  A    between atoms: _190  and  _191
REMARK   82  A    between atoms: _193  and  _195
REMARK   83  A    between atoms: _195  and  _196
REMARK   84  A    between atoms: _195  and  _198
REMARK   85  A    between atoms: _200  and  _202
REMARK   86  A    between atoms: _202  and  _203
REMARK   87  A    between atoms: _202  and  _205
REMARK   88  A    between atoms: _205  and  _206
REMARK   89  A    between atoms: _209  and  _211
REMARK   90  A    between atoms: _211  and  _212
REMARK   91  A    between atoms: _211  and  _214
REMARK   92  A    between atoms: _214  and  _215
REMARK   93  A    between atoms: _218  and  _220
REMARK   94  A    between atoms: _220  and  _221
REMARK   95  A    between atoms: _220  and  _223
REMARK   96  A    between atoms: _223  and  _224
REMARK   97  A    between atoms: _224  and  _225
REMARK   98  A    between atoms: _225  and  _226
REMARK   99  A    between atoms: _226  and  _227
REMARK  100  A    between atoms: _231  and  _233
REMARK  101  A    between atoms: _233  and  _234
REMARK  102  A    between atoms: _233  and  _236
REMARK  103  A    between atoms: _236  and  _237
REMARK  104  A    between atoms: _237  and  _238
REMARK  105  A    between atoms: _238  and  _239
REMARK  106  A    between atoms: _239  and  _240
REMARK  107  A    between atoms: _244  and  _246
REMARK  108  A    between atoms: _246  and  _247
REMARK  109  A    between atoms: _246  and  _249
REMARK  110  A    between atoms: _249  and  _250
REMARK  111  A    between atoms: _250  and  _251
REMARK  112  A    between atoms: _251  and  _252
REMARK  113  A    between atoms: _261  and  _263
REMARK  114  A    between atoms: _263  and  _264
REMARK  115  A    between atoms: _263  and  _266
REMARK  116  A    between atoms: _266  and  _267
REMARK  117  A    between atoms: _270  and  _272
REMARK  118  A    between atoms: _272  and  _273
REMARK  119  A    between atoms: _276  and  _278
REMARK  120  A    between atoms: _278  and  _279
REMARK  121  A    between atoms: _278  and  _281
REMARK  122  A    between atoms: _281  and  _282
REMARK  123  A    between atoms: _282  and  _283
REMARK  124  A    between atoms: _288  and  _290
REMARK  125  A    between atoms: _290  and  _291
REMARK  126  A    between atoms: _290  and  _293
REMARK  127  A    between atoms: _293  and  _294
REMARK  128  A    between atoms: _294  and  _295
REMARK  129  A    between atoms: _298  and  _300
REMARK  130  A    between atoms: _300  and  _301
REMARK  131  A    between atoms: _303  and  _305
REMARK  132  A    between atoms: _305  and  _306
REMARK  133  A    between atoms: _305  and  _308
REMARK  134  A    between atoms: _310  and  _312
REMARK  135  A    between atoms: _312  and  _313
REMARK  136  A    between atoms: _312  and  _315
REMARK  137  A    between atoms: _315  and  _316
REMARK  138  A    between atoms: _319  and  _321
REMARK  139  A    between atoms: _321  and  _322
REMARK  140  A    between atoms: _321  and  _324
REMARK  141  A    between atoms: _327  and  _329
REMARK  142  A    between atoms: _329  and  _330
REMARK  143  A    between atoms: _333  and  _335
REMARK  144  A    between atoms: _335  and  _336
REMARK  145  A    between atoms: _335  and  _338
REMARK  146  A    between atoms: _338  and  _339
REMARK  147  A    between atoms: _341  and  _343
REMARK  148  A    between atoms: _343  and  _344
REMARK  149  A    between atoms: _343  and  _346
REMARK  150  A    between atoms: _346  and  _347
REMARK  151  A    between atoms: _350  and  _352
REMARK  152  A    between atoms: _352  and  _353
REMARK  153  A    between atoms: _352  and  _355
REMARK  154  A    between atoms: _355  and  _356
REMARK  155  A    between atoms: _361  and  _363
REMARK  156  A    between atoms: _363  and  _364
REMARK  157  A    between atoms: _363  and  _366
REMARK  158  A    between atoms: _366  and  _367
REMARK  159  A    between atoms: _367  and  _368
REMARK  160  A    between atoms: _368  and  _369
REMARK  161  A    between atoms: _378  and  _380
REMARK  162  A    between atoms: _380  and  _381
REMARK  163  A    between atoms: _383  and  _385
REMARK  164  A    between atoms: _385  and  _386
REMARK  165  A    between atoms: _385  and  _388
REMARK  166  A    between atoms: _391  and  _393
REMARK  167  A    between atoms: _393  and  _394
REMARK  168  A    between atoms: _393  and  _396
REMARK  169  A    between atoms: _396  and  _397
REMARK  170  A    between atoms: _400  and  _402
REMARK  171  A    between atoms: _402  and  _403
REMARK  172  A    between atoms: _402  and  _405
REMARK  173  A    between atoms: _405  and  _406
REMARK  174  A    between atoms: _406  and  _407
REMARK  175  A    between atoms: _407  and  _408
REMARK  176  A    between atoms: _408  and  _409
REMARK  177  A    between atoms: _413  and  _415
REMARK  178  A    between atoms: _415  and  _416
REMARK  179  A    between atoms: _415  and  _418
REMARK  180  A    between atoms: _418  and  _419
REMARK  181  A    between atoms: _419  and  _420
REMARK  182  A    between atoms: _420  and  _421
REMARK  183  A    between atoms: _421  and  _422
REMARK  184  A    between atoms: _426  and  _428
REMARK  185  A    between atoms: _428  and  _429
REMARK  186  A    between atoms: _428  and  _431
REMARK  187  A    between atoms: _431  and  _432
REMARK  188  A    between atoms: _437  and  _439
REMARK  189  A    between atoms: _439  and  _440
REMARK  190  A    between atoms: _439  and  _442
REMARK  191  A    between atoms: _442  and  _443
REMARK  192  A    between atoms: _448  and  _450
REMARK  193  A    between atoms: _450  and  _451
REMARK  194  A    between atoms: _454  and  _456
REMARK  195  A    between atoms: _456  and  _457
REMARK  196  A    between atoms: _456  and  _459
REMARK  197  A    between atoms: _459  and  _460
REMARK  198  A    between atoms: _465  and  _467
REMARK  199  A    between atoms: _467  and  _468
REMARK  200  A    between atoms: _471  and  _473
REMARK  201  A    between atoms: _473  and  _474
REMARK  202  A    between atoms: _477  and  _479
REMARK  203  A    between atoms: _479  and  _480
REMARK  204  A    between atoms: _479  and  _482
REMARK  205  A    between atoms: _482  and  _483
REMARK  206  A    between atoms: _488  and  _490
REMARK  207  A    between atoms: _490  and  _491
REMARK  208  A    between atoms: _490  and  _493
REMARK  209  A    between atoms: _493  and  _494
REMARK  210  A    between atoms: _497  and  _499
REMARK  211  A    between atoms: _499  and  _500
REMARK  212  A    between atoms: _502  and  _504
REMARK  213  A    between atoms: _504  and  _505
REMARK  214  A    between atoms: _504  and  _507
REMARK  215  A    between atoms: _507  and  _508
REMARK  216  A    between atoms: _508  and  _509
REMARK  217  A    between atoms: _512  and  _514
REMARK  218  A    between atoms: _514  and  _515
REMARK  219  A    between atoms: _514  and  _517
REMARK  220  A    between atoms: _517  and  _518
REMARK  221  A    between atoms: _521  and  _523
REMARK  222  A    between atoms: _523  and  _524
REMARK  223  A    between atoms: _523  and  _526
REMARK  224  A    between atoms: _526  and  _527
REMARK  225  A    between atoms: _529  and  _531
REMARK  226  A    between atoms: _531  and  _532
REMARK  227  A    between atoms: _531  and  _534
REMARK  228  A    between atoms: _534  and  _535
REMARK  229  A    between atoms: _538  and  _540
REMARK  230  A    between atoms: _540  and  _541
REMARK  231  A    between atoms: _540  and  _543
REMARK  232  A    between atoms: _543  and  _544
REMARK  233  A    between atoms: _544  and  _545
REMARK  234  A    between atoms: _547  and  _549
REMARK  235  A    between atoms: _549  and  _550
REMARK  236  A    between atoms: _553  and  _555
REMARK  237  A    between atoms: _555  and  _556
REMARK  238  A    between atoms: _559  and  _561
REMARK  239  A    between atoms: _561  and  _562
REMARK  240  A    between atoms: _561  and  _564
REMARK  241  A    between atoms: _564  and  _565
REMARK  242  A    between atoms: _568  and  _570
REMARK  243  A    between atoms: _570  and  _571
REMARK  244  A    between atoms: _574  and  _576
REMARK  245  A    between atoms: _576  and  _577
REMARK  246  A    between atoms: _580  and  _582
REMARK  247  A    between atoms: _582  and  _583
REMARK  248  A    between atoms: _585  and  _587
REMARK  249  A    between atoms: _587  and  _588
REMARK  250  A    between atoms: _587  and  _590
REMARK  251  A    between atoms: _590  and  _591
REMARK                            x       y       z     vdW  Elec       q    Type
REMARK                         _______ _______ _______ _____ _____    ______ ____
ROOT
ATOM      1  C   MET A   1       9.546  25.781  16.286  0.00  0.00    +0.238 C 
ATOM      2  O   MET A   1       9.918  25.421  17.400  0.00  0.00    -0.274 OA
ATOM      3  N   ASN A   2       9.756  27.004  15.812  0.00  0.00    -0.298 N 
ATOM      4  H   ASN A   2       9.385  27.254  14.873  0.00  0.00    +0.150 HD
ENDROOT
BRANCH   1   5
ATOM      5  CA  MET A   1       8.824  24.807  15.366  0.00  0.00    +0.146 C 
BRANCH   5   6
ATOM      6  N   MET A   1       7.633  25.399  14.736  0.00  0.00    -0.238 NA
ATOM      7  H   MET A   1       7.598  25.504  13.702  0.00  0.00    +0.142 HD
ENDBRANCH   5   6
BRANCH   5   8
ATOM      8  CB  MET A   1       9.826  24.307  14.323  0.00  0.00    +0.038 C 
BRANCH   8   9
ATOM      9  CG  MET A   1       9.340  23.144  13.481  0.00  0.00    +0.060 C 
BRANCH   9  10
ATOM     10  SD  MET A   1       9.323  21.487  14.210  0.00  0.00    -0.139 S 
ATOM     11  CE  MET A   1      10.948  21.235  14.455  0.00  0.00    +0.069 C 
ENDBRANCH   9  10
ENDBRANCH   8   9
ENDBRANCH   5   8
ENDBRANCH   1   5
BRANCH   3  12
ATOM     12  CA  ASN A   2      10.496  28.010  16.576  0.00  0.00    +0.146 C 
BRANCH  12  13
ATOM     13  C   ASN A   2       9.729  28.452  17.823  0.00  0.00    +0.227 C 
ATOM     14  O   ASN A   2      10.311  28.614  18.903  0.00  0.00    -0.286 OA
ENDBRANCH  12  13
BRANCH  12  15
ATOM     15  CB  ASN A   2      10.827  29.220  15.696  0.00  0.00    +0.112 C 
BRANCH  15  16
ATOM     16  CG  ASN A   2      11.810  28.883  14.588  0.00  0.00    +0.222 C 
ATOM     17  OD1 ASN A   2      12.994  28.629  14.844  0.00  0.00    -0.275 OA
ATOM     18  ND2 ASN A   2      11.326  28.875  13.349  0.00  0.00    -0.329 N 
ATOM     19 HD21 ASN A   2      10.323  29.095  13.181  0.00  0.00    +0.145 HD
ATOM     20 HD22 ASN A   2      11.950  28.649  12.548  0.00  0.00    +0.145 HD
ENDBRANCH  15  16
ENDBRANCH  12  15
ENDBRANCH   3  12
TORSDOF 9
REMARK  Name = ../refined-set-2016/3cda/3cda_pocket.pdb
REMARK  251 active torsions:
REMARK  status: ('A' for Active; 'I' for Inactive)
REMARK    1  A    between atoms: _1  and  _3
REMARK    2  A    between atoms: _3  and  _4
REMARK    3  A    between atoms: _3  and  _6
REMARK    4  A    between atoms: _6  and  _7
REMARK    5  A    between atoms: _12  and  _13
REMARK    6  A    between atoms: _15  and  _17
REMARK    7  A    between atoms: _17  and  _18
REMARK    8  A    between atoms: _17  and  _20
REMARK    9  A    between atoms: _20  and  _21
REMARK   10  A    between atoms: _21  and  _22
REMARK   11  A    between atoms: _25  and  _27
REMARK   12  A    between atoms: _27  and  _28
REMARK   13  A    between atoms: _27  and  _30
REMARK   14  A    between atoms: _30  and  _31
REMARK   15  A    between atoms: _34  and  _36
REMARK   16  A    between atoms: _36  and  _37
REMARK   17  A    between atoms: _36  and  _39
REMARK   18  A    between atoms: _39  and  _40
REMARK   19  A    between atoms: _40  and  _41
REMARK   20  A    between atoms: _41  and  _42
REMARK   21  A    between atoms: _51  and  _53
REMARK   22  A    between atoms: _53  and  _54
REMARK   23  A    between atoms: _57  and  _58
REMARK   24  A    between atoms: _63  and  _65
REMARK   25  A    between atoms: _65  and  _66
REMARK   26  A    between atoms: _65  and  _68
REMARK   27  A    between atoms: _68  and  _69
REMARK   28  A    between atoms: _69  and  _70
REMARK   29  A    between atoms: _72  and  _74
REMARK   30  A    between atoms: _74  and  _75
REMARK   31  A    between atoms: _74  and  _77
REMARK   32  A    between atoms: _77  and  _78
REMARK   33  A    between atoms: _78  and  _79
REMARK   34  A    between atoms: _81  and  _83
REMARK   35  A    between atoms: _83  and  _84
REMARK   36  A    between atoms: _83  and  _86
REMARK   37  A    between atoms: _86  and  _87
REMARK   38  A    between atoms: _92  and  _94
REMARK   39  A    between atoms: _94  and  _95
REMARK   40  A    between atoms: _94  and  _97
REMARK   41  A    between atoms: _97  and  _98
REMARK   42  A    between atoms: _101  and  _103
REMARK   43  A    between atoms: _103  and  _104
REMARK   44  A    between atoms: _103  and  _106
REMARK   45  A    between atoms: _106  and  _107
REMARK   46  A    between atoms: _109  and  _111
REMARK   47  A    between atoms: _111  and  _112
REMARK   48  A    between atoms: _111  and  _114
REMARK   49  A    between atoms: _114  and  _115
REMARK   50  A    between atoms: _115  and  _116
REMARK   51  A    between atoms: _116  and  _117
REMARK   52  A    between atoms: _117  and  _118
REMARK   53  A    between atoms: _122  and  _124
REMARK   54  A    between atoms: _124  and  _125
REMARK   55  A    between atoms: _124  and  _127
REMARK   56  A    between atoms: _127  and  _128
REMARK   57  A    between atoms: _131  and  _133
REMARK   58  A    between atoms: _133  and  _134
REMARK   59  A    between atoms: _133  and  _136
REMARK   60  A    between atoms: _136  and  _137
REMARK   61  A    between atoms: _137  and  _138
REMARK   62  A    between atoms: _141  and  _143
REMARK   63  A    between atoms: _143  and  _144
REMARK   64  A    between atoms: _147  and  _149
REMARK   65  A    between atoms: _149  and  _150
REMARK   66  A    between atoms: _149  and  _152
REMARK   67  A    between atoms: _155  and  _157
REMARK   68  A    between atoms: _157  and  _158
REMARK   69  A    between atoms: _157  and  _160
REMARK   70  A    between atoms: _160  and  _161
REMARK   71  A    between atoms: _163  and  _165
REMARK   72  A    between atoms: _165  and  _166
REMARK   73  A    between atoms: _168  and  _170
REMARK   74  A    between atoms: _170  and  _171
REMARK   75  A    between atoms: _170  and  _173
REMARK   76  A    between atoms: _173  and  _174
REMARK   77  A    between atoms: _179  and  _181
REMARK   78  A    between atoms: _181  and  _182
REMARK   79  A    between atoms: _181  and  _184
REMARK   80  A    between atoms: _184  and  _185
REMARK   81  A    between atoms: _190  and  _191
REMARK   82  A    between atoms: _193  and  _195
REMARK   83  A    between atoms: _195  and  _196
REMARK   84  A    between atoms: _195  and  _198
REMARK   85  A    between atoms: _200  and  _202
REMARK   86  A    between atoms: _202  and  _203
REMARK   87  A    between atoms: _202  and  _205
REMARK   88  A    between atoms: _205  and  _206
REMARK   89  A    between atoms: _209  and  _211
REMARK   90  A    between atoms: _211  and  _212
REMARK   91  A    between atoms: _211  and  _214
REMARK   92  A    between atoms: _214  and  _215
REMARK   93  A    between atoms: _218  and  _220
REMARK   94  A    between atoms: _220  and  _221
REMARK   95  A    between atoms: _220  and  _223
REMARK   96  A    between atoms: _223  and  _224
REMARK   97  A    between atoms: _224  and  _225
REMARK   98  A    between atoms: _225  and  _226
REMARK   99  A    between atoms: _226  and  _227
REMARK  100  A    between atoms: _231  and  _233
REMARK  101  A    between atoms: _233  and  _234
REMARK  102  A    between atoms: _233  and  _236
REMARK  103  A    between atoms: _236  and  _237
REMARK  104  A    between atoms: _237  and  _238
REMARK  105  A    between atoms: _238  and  _239
REMARK  106  A    between atoms: _239  and  _240
REMARK  107  A    between atoms: _244  and  _246
REMARK  108  A    between atoms: _246  and  _247
REMARK  109  A    between atoms: _246  and  _249
REMARK  110  A    between atoms: _249  and  _250
REMARK  111  A    between atoms: _250  and  _251
REMARK  112  A    between atoms: _251  and  _252
REMARK  113  A    between atoms: _261  and  _263
REMARK  114  A    between atoms: _263  and  _264
REMARK  115  A    between atoms: _263  and  _266
REMARK  116  A    between atoms: _266  and  _267
REMARK  117  A    between atoms: _270  and  _272
REMARK  118  A    between atoms: _272  and  _273
REMARK  119  A    between atoms: _276  and  _278
REMARK  120  A    between atoms: _278  and  _279
REMARK  121  A    between atoms: _278  and  _281
REMARK  122  A    between atoms: _281  and  _282
REMARK  123  A    between atoms: _282  and  _283
REMARK  124  A    between atoms: _288  and  _290
REMARK  125  A    between atoms: _290  and  _291
REMARK  126  A    between atoms: _290  and  _293
REMARK  127  A    between atoms: _293  and  _294
REMARK  128  A    between atoms: _294  and  _295
REMARK  129  A    between atoms: _298  and  _300
REMARK  130  A    between atoms: _300  and  _301
REMARK  131  A    between atoms: _303  and  _305
REMARK  132  A    between atoms: _305  and  _306
REMARK  133  A    between atoms: _305  and  _308
REMARK  134  A    between atoms: _310  and  _312
REMARK  135  A    between atoms: _312  and  _313
REMARK  136  A    between atoms: _312  and  _315
REMARK  137  A    between atoms: _315  and  _316
REMARK  138  A    between atoms: _319  and  _321
REMARK  139  A    between atoms: _321  and  _322
REMARK  140  A    between atoms: _321  and  _324
REMARK  141  A    between atoms: _327  and  _329
REMARK  142  A    between atoms: _329  and  _330
REMARK  143  A    between atoms: _333  and  _335
REMARK  144  A    between atoms: _335  and  _336
REMARK  145  A    between atoms: _335  and  _338
REMARK  146  A    between atoms: _338  and  _339
REMARK  147  A    between atoms: _341  and  _343
REMARK  148  A    between atoms: _343  and  _344
REMARK  149  A    between atoms: _343  and  _346
REMARK  150  A    between atoms: _346  and  _347
REMARK  151  A    between atoms: _350  and  _352
REMARK  152  A    between atoms: _352  and  _353
REMARK  153  A    between atoms: _352  and  _355
REMARK  154  A    between atoms: _355  and  _356
REMARK  155  A    between atoms: _361  and  _363
REMARK  156  A    between atoms: _363  and  _364
REMARK  157  A    between atoms: _363  and  _366
REMARK  158  A    between atoms: _366  and  _367
REMARK  159  A    between atoms: _367  and  _368
REMARK  160  A    between atoms: _368  and  _369
REMARK  161  A    between atoms: _378  and  _380
REMARK  162  A    between atoms: _380  and  _381
REMARK  163  A    between atoms: _383  and  _385
REMARK  164  A    between atoms: _385  and  _386
REMARK  165  A    between atoms: _385  and  _388
REMARK  166  A    between atoms: _391  and  _393
REMARK  167  A    between atoms: _393  and  _394
REMARK  168  A    between atoms: _393  and  _396
REMARK  169  A    between atoms: _396  and  _397
REMARK  170  A    between atoms: _400  and  _402
REMARK  171  A    between atoms: _402  and  _403
REMARK  172  A    between atoms: _402  and  _405
REMARK  173  A    between atoms: _405  and  _406
REMARK  174  A    between atoms: _406  and  _407
REMARK  175  A    between atoms: _407  and  _408
REMARK  176  A    between atoms: _408  and  _409
REMARK  177  A    between atoms: _413  and  _415
REMARK  178  A    between atoms: _415  and  _416
REMARK  179  A    between atoms: _415  and  _418
REMARK  180  A    between atoms: _418  and  _419
REMARK  181  A    between atoms: _419  and  _420
REMARK  182  A    between atoms: _420  and  _421
REMARK  183  A    between atoms: _421  and  _422
REMARK  184  A    between atoms: _426  and  _428
REMARK  185  A    between atoms: _428  and  _429
REMARK  186  A    between atoms: _428  and  _431
REMARK  187  A    between atoms: _431  and  _432
REMARK  188  A    between atoms: _437  and  _439
REMARK  189  A    between atoms: _439  and  _440
REMARK  190  A    between atoms: _439  and  _442
REMARK  191  A    between atoms: _442  and  _443
REMARK  192  A    between atoms: _448  and  _450
REMARK  193  A    between atoms: _450  and  _451
REMARK  194  A    between atoms: _454  and  _456
REMARK  195  A    between atoms: _456  and  _457
REMARK  196  A    between atoms: _456  and  _459
REMARK  197  A    between atoms: _459  and  _460
REMARK  198  A    between atoms: _465  and  _467
REMARK  199  A    between atoms: _467  and  _468
REMARK  200  A    between atoms: _471  and  _473
REMARK  201  A    between atoms: _473  and  _474
REMARK  202  A    between atoms: _477  and  _479
REMARK  203  A    between atoms: _479  and  _480
REMARK  204  A    between atoms: _479  and  _482
REMARK  205  A    between atoms: _482  and  _483
REMARK  206  A    between atoms: _488  and  _490
REMARK  207  A    between atoms: _490  and  _491
REMARK  208  A    between atoms: _490  and  _493
REMARK  209  A    between atoms: _493  and  _494
REMARK  210  A    between atoms: _497  and  _499
REMARK  211  A    between atoms: _499  and  _500
REMARK  212  A    between atoms: _502  and  _504
REMARK  213  A    between atoms: _504  and  _505
REMARK  214  A    between atoms: _504  and  _507
REMARK  215  A    between atoms: _507  and  _508
REMARK  216  A    between atoms: _508  and  _509
REMARK  217  A    between atoms: _512  and  _514
REMARK  218  A    between atoms: _514  and  _515
REMARK  219  A    between atoms: _514  and  _517
REMARK  220  A    between atoms: _517  and  _518
REMARK  221  A    between atoms: _521  and  _523
REMARK  222  A    between atoms: _523  and  _524
REMARK  223  A    between atoms: _523  and  _526
REMARK  224  A    between atoms: _526  and  _527
REMARK  225  A    between atoms: _529  and  _531
REMARK  226  A    between atoms: _531  and  _532
REMARK  227  A    between atoms: _531  and  _534
REMARK  228  A    between atoms: _534  and  _535
REMARK  229  A    between atoms: _538  and  _540
REMARK  230  A    between atoms: _540  and  _541
REMARK  231  A    between atoms: _540  and  _543
REMARK  232  A    between atoms: _543  and  _544
REMARK  233  A    between atoms: _544  and  _545
REMARK  234  A    between atoms: _547  and  _549
REMARK  235  A    between atoms: _549  and  _550
REMARK  236  A    between atoms: _553  and  _555
REMARK  237  A    between atoms: _555  and  _556
REMARK  238  A    between atoms: _559  and  _561
REMARK  239  A    between atoms: _561  and  _562
REMARK  240  A    between atoms: _561  and  _564
REMARK  241  A    between atoms: _564  and  _565
REMARK  242  A    between atoms: _568  and  _570
REMARK  243  A    between atoms: _570  and  _571
REMARK  244  A    between atoms: _574  and  _576
REMARK  245  A    between atoms: _576  and  _577
REMARK  246  A    between atoms: _580  and  _582
REMARK  247  A    between atoms: _582  and  _583
REMARK  248  A    between atoms: _585  and  _587
REMARK  249  A    between atoms: _587  and  _588
REMARK  250  A    between atoms: _587  and  _590
REMARK  251  A    between atoms: _590  and  _591
REMARK                            x       y       z     vdW  Elec       q    Type
REMARK                         _______ _______ _______ _____ _____    ______ ____
ROOT
ATOM      1  CA  SER A   2      11.017  25.346  21.038  0.00  0.00    +0.178 C 
ENDROOT
BRANCH   1   4
ATOM      2  C   ILE A   1       8.571  25.346  21.102  0.00  0.00    +0.238 C 
ATOM      3  O   ILE A   1       8.554  25.097  22.295  0.00  0.00    -0.274 OA
ATOM      4  N   SER A   2       9.700  25.476  20.410  0.00  0.00    -0.295 N 
ATOM      5  H   SER A   2       9.646  25.676  19.391  0.00  0.00    +0.150 HD
BRANCH   2   6
ATOM      6  CA  ILE A   1       7.258  25.509  20.334  0.00  0.00    +0.145 C 
BRANCH   6   7
ATOM      7  N   ILE A   1       7.322  26.641  19.414  0.00  0.00    -0.238 NA
ATOM      8  H   ILE A   1       7.234  26.467  18.392  0.00  0.00    +0.142 HD
ENDBRANCH   6   7
BRANCH   6   9
ATOM      9  CB  ILE A   1       6.924  24.201  19.581  0.00  0.00    +0.025 C 
ATOM     10  CG2 ILE A   1       7.119  22.990  20.496  0.00  0.00    +0.002 C 
BRANCH   9  11
ATOM     11  CG1 ILE A   1       5.497  24.250  19.010  0.00  0.00    +0.002 C 
ATOM     12  CD1 ILE A   1       4.418  23.889  19.982  0.00  0.00    +0.000 C 
ENDBRANCH   9  11
ENDBRANCH   6   9
ENDBRANCH   2   6
ENDBRANCH   1   4
BRANCH   1  13
ATOM     13  C   SER A   2      11.216  26.389  22.131  0.00  0.00    +0.243 C 
ATOM     14  O   SER A   2      11.800  26.095  23.168  0.00  0.00    -0.273 OA
ATOM     15  N   LYS A   3      10.733  27.602  21.880  0.00  0.00    -0.298 N 
ATOM     16  H   LYS A   3      10.294  27.780  20.954  0.00  0.00    +0.150 HD
BRANCH  15  17
ATOM     17  CA  LYS A   3      10.791  28.695  22.846  0.00  0.00    +0.137 C 
BRANCH  17  18
ATOM     18  C   LYS A   3       9.914  28.383  24.057  0.00  0.00    +0.227 C 
ATOM     19  O   LYS A   3      10.319  28.597  25.197  0.00  0.00    -0.286 OA
ENDBRANCH  17  18
BRANCH  17  20
ATOM     20  CB  LYS A   3      10.335  29.999  22.181  0.00  0.00    +0.028 C 
BRANCH  20  21
ATOM     21  CG  LYS A   3      10.342  31.236  23.067  0.00  0.00    -0.000 C 
BRANCH  21  22
ATOM     22  CD  LYS A   3       9.634  32.409  22.368  0.00  0.00    -0.024 C 
BRANCH  22  23
ATOM     23  CE  LYS A   3      10.070  33.775  22.922  0.00  0.00    -0.086 C 
BRANCH  23  24
ATOM     24  NZ  LYS A   3       9.210  34.253  24.050  0.00  0.00    +0.380 N 
ATOM     25  HZ1 LYS A   3       9.252  33.568  24.831  0.00  0.00    -0.089 HD
ATOM     26  HZ2 LYS A   3       9.554  35.177  24.379  0.00  0.00    -0.089 HD
ATOM     27  HZ3 LYS A   3       8.228  34.345  23.721  0.00  0.00    -0.089 HD
ENDBRANCH  23  24
ENDBRANCH  22  23
ENDBRANCH  21  22
ENDBRANCH  20  21
ENDBRANCH  17  20
ENDBRANCH  15  17
ENDBRANCH   1  13
BRANCH   1  28
ATOM     28  CB  SER A   2      12.140  25.475  20.002  0.00  0.00    +0.166 C 
BRANCH  28  29
ATOM     29  OG  SER A   2      12.266  24.293  19.233  0.00  0.00    -0.380 OA
ATOM     30  H   SER A   2      11.416  24.118  18.757  0.00  0.00    +0.211 HD
ENDBRANCH  28  29
ENDBRANCH   1  28
TORSDOF 15
REMARK  Name = ../refined-set-2016/3cda/3cda_pocket.pdb
REMARK  251 active torsions:
REMARK  status: ('A' for Active; 'I' for Inactive)
REMARK    1  A    between atoms: _1  and  _3
REMARK    2  A    between atoms: _3  and  _4
REMARK    3  A    between atoms: _3  and  _6
REMARK    4  A    between atoms: _6  and  _7
REMARK    5  A    between atoms: _12  and  _13
REMARK    6  A    between atoms: _15  and  _17
REMARK    7  A    between atoms: _17  and  _18
REMARK    8  A    between atoms: _17  and  _20
REMARK    9  A    between atoms: _20  and  _21
REMARK   10  A    between atoms: _21  and  _22
REMARK   11  A    between atoms: _25  and  _27
REMARK   12  A    between atoms: _27  and  _28
REMARK   13  A    between atoms: _27  and  _30
REMARK   14  A    between atoms: _30  and  _31
REMARK   15  A    between atoms: _34  and  _36
REMARK   16  A    between atoms: _36  and  _37
REMARK   17  A    between atoms: _36  and  _39
REMARK   18  A    between atoms: _39  and  _40
REMARK   19  A    between atoms: _40  and  _41
REMARK   20  A    between atoms: _41  and  _42
REMARK   21  A    between atoms: _51  and  _53
REMARK   22  A    between atoms: _53  and  _54
REMARK   23  A    between atoms: _57  and  _58
REMARK   24  A    between atoms: _63  and  _65
REMARK   25  A    between atoms: _65  and  _66
REMARK   26  A    between atoms: _65  and  _68
REMARK   27  A    between atoms: _68  and  _69
REMARK   28  A    between atoms: _69  and  _70
REMARK   29  A    between atoms: _72  and  _74
REMARK   30  A    between atoms: _74  and  _75
REMARK   31  A    between atoms: _74  and  _77
REMARK   32  A    between atoms: _77  and  _78
REMARK   33  A    between atoms: _78  and  _79
REMARK   34  A    between atoms: _81  and  _83
REMARK   35  A    between atoms: _83  and  _84
REMARK   36  A    between atoms: _83  and  _86
REMARK   37  A    between atoms: _86  and  _87
REMARK   38  A    between atoms: _92  and  _94
REMARK   39  A    between atoms: _94  and  _95
REMARK   40  A    between atoms: _94  and  _97
REMARK   41  A    between atoms: _97  and  _98
REMARK   42  A    between atoms: _101  and  _103
REMARK   43  A    between atoms: _103  and  _104
REMARK   44  A    between atoms: _103  and  _106
REMARK   45  A    between atoms: _106  and  _107
REMARK   46  A    between atoms: _109  and  _111
REMARK   47  A    between atoms: _111  and  _112
REMARK   48  A    between atoms: _111  and  _114
REMARK   49  A    between atoms: _114  and  _115
REMARK   50  A    between atoms: _115  and  _116
REMARK   51  A    between atoms: _116  and  _117
REMARK   52  A    between atoms: _117  and  _118
REMARK   53  A    between atoms: _122  and  _124
REMARK   54  A    between atoms: _124  and  _125
REMARK   55  A    between atoms: _124  and  _127
REMARK   56  A    between atoms: _127  and  _128
REMARK   57  A    between atoms: _131  and  _133
REMARK   58  A    between atoms: _133  and  _134
REMARK   59  A    between atoms: _133  and  _136
REMARK   60  A    between atoms: _136  and  _137
REMARK   61  A    between atoms: _137  and  _138
REMARK   62  A    between atoms: _141  and  _143
REMARK   63  A    between atoms: _143  and  _144
REMARK   64  A    between atoms: _147  and  _149
REMARK   65  A    between atoms: _149  and  _150
REMARK   66  A    between atoms: _149  and  _152
REMARK   67  A    between atoms: _155  and  _157
REMARK   68  A    between atoms: _157  and  _158
REMARK   69  A    between atoms: _157  and  _160
REMARK   70  A    between atoms: _160  and  _161
REMARK   71  A    between atoms: _163  and  _165
REMARK   72  A    between atoms: _165  and  _166
REMARK   73  A    between atoms: _168  and  _170
REMARK   74  A    between atoms: _170  and  _171
REMARK   75  A    between atoms: _170  and  _173
REMARK   76  A    between atoms: _173  and  _174
REMARK   77  A    between atoms: _179  and  _181
REMARK   78  A    between atoms: _181  and  _182
REMARK   79  A    between atoms: _181  and  _184
REMARK   80  A    between atoms: _184  and  _185
REMARK   81  A    between atoms: _190  and  _191
REMARK   82  A    between atoms: _193  and  _195
REMARK   83  A    between atoms: _195  and  _196
REMARK   84  A    between atoms: _195  and  _198
REMARK   85  A    between atoms: _200  and  _202
REMARK   86  A    between atoms: _202  and  _203
REMARK   87  A    between atoms: _202  and  _205
REMARK   88  A    between atoms: _205  and  _206
REMARK   89  A    between atoms: _209  and  _211
REMARK   90  A    between atoms: _211  and  _212
REMARK   91  A    between atoms: _211  and  _214
REMARK   92  A    between atoms: _214  and  _215
REMARK   93  A    between atoms: _218  and  _220
REMARK   94  A    between atoms: _220  and  _221
REMARK   95  A    between atoms: _220  and  _223
REMARK   96  A    between atoms: _223  and  _224
REMARK   97  A    between atoms: _224  and  _225
REMARK   98  A    between atoms: _225  and  _226
REMARK   99  A    between atoms: _226  and  _227
REMARK  100  A    between atoms: _231  and  _233
REMARK  101  A    between atoms: _233  and  _234
REMARK  102  A    between atoms: _233  and  _236
REMARK  103  A    between atoms: _236  and  _237
REMARK  104  A    between atoms: _237  and  _238
REMARK  105  A    between atoms: _238  and  _239
REMARK  106  A    between atoms: _239  and  _240
REMARK  107  A    between atoms: _244  and  _246
REMARK  108  A    between atoms: _246  and  _247
REMARK  109  A    between atoms: _246  and  _249
REMARK  110  A    between atoms: _249  and  _250
REMARK  111  A    between atoms: _250  and  _251
REMARK  112  A    between atoms: _251  and  _252
REMARK  113  A    between atoms: _261  and  _263
REMARK  114  A    between atoms: _263  and  _264
REMARK  115  A    between atoms: _263  and  _266
REMARK  116  A    between atoms: _266  and  _267
REMARK  117  A    between atoms: _270  and  _272
REMARK  118  A    between atoms: _272  and  _273
REMARK  119  A    between atoms: _276  and  _278
REMARK  120  A    between atoms: _278  and  _279
REMARK  121  A    between atoms: _278  and  _281
REMARK  122  A    between atoms: _281  and  _282
REMARK  123  A    between atoms: _282  and  _283
REMARK  124  A    between atoms: _288  and  _290
REMARK  125  A    between atoms: _290  and  _291
REMARK  126  A    between atoms: _290  and  _293
REMARK  127  A    between atoms: _293  and  _294
REMARK  128  A    between atoms: _294  and  _295
REMARK  129  A    between atoms: _298  and  _300
REMARK  130  A    between atoms: _300  and  _301
REMARK  131  A    between atoms: _303  and  _305
REMARK  132  A    between atoms: _305  and  _306
REMARK  133  A    between atoms: _305  and  _308
REMARK  134  A    between atoms: _310  and  _312
REMARK  135  A    between atoms: _312  and  _313
REMARK  136  A    between atoms: _312  and  _315
REMARK  137  A    between atoms: _315  and  _316
REMARK  138  A    between atoms: _319  and  _321
REMARK  139  A    between atoms: _321  and  _322
REMARK  140  A    between atoms: _321  and  _324
REMARK  141  A    between atoms: _327  and  _329
REMARK  142  A    between atoms: _329  and  _330
REMARK  143  A    between atoms: _333  and  _335
REMARK  144  A    between atoms: _335  and  _336
REMARK  145  A    between atoms: _335  and  _338
REMARK  146  A    between atoms: _338  and  _339
REMARK  147  A    between atoms: _341  and  _343
REMARK  148  A    between atoms: _343  and  _344
REMARK  149  A    between atoms: _343  and  _346
REMARK  150  A    between atoms: _346  and  _347
REMARK  151  A    between atoms: _350  and  _352
REMARK  152  A    between atoms: _352  and  _353
REMARK  153  A    between atoms: _352  and  _355
REMARK  154  A    between atoms: _355  and  _356
REMARK  155  A    between atoms: _361  and  _363
REMARK  156  A    between atoms: _363  and  _364
REMARK  157  A    between atoms: _363  and  _366
REMARK  158  A    between atoms: _366  and  _367
REMARK  159  A    between atoms: _367  and  _368
REMARK  160  A    between atoms: _368  and  _369
REMARK  161  A    between atoms: _378  and  _380
REMARK  162  A    between atoms: _380  and  _381
REMARK  163  A    between atoms: _383  and  _385
REMARK  164  A    between atoms: _385  and  _386
REMARK  165  A    between atoms: _385  and  _388
REMARK  166  A    between atoms: _391  and  _393
REMARK  167  A    between atoms: _393  and  _394
REMARK  168  A    between atoms: _393  and  _396
REMARK  169  A    between atoms: _396  and  _397
REMARK  170  A    between atoms: _400  and  _402
REMARK  171  A    between atoms: _402  and  _403
REMARK  172  A    between atoms: _402  and  _405
REMARK  173  A    between atoms: _405  and  _406
REMARK  174  A    between atoms: _406  and  _407
REMARK  175  A    between atoms: _407  and  _408
REMARK  176  A    between atoms: _408  and  _409
REMARK  177  A    between atoms: _413  and  _415
REMARK  178  A    between atoms: _415  and  _416
REMARK  179  A    between atoms: _415  and  _418
REMARK  180  A    between atoms: _418  and  _419
REMARK  181  A    between atoms: _419  and  _420
REMARK  182  A    between atoms: _420  and  _421
REMARK  183  A    between atoms: _421  and  _422
REMARK  184  A    between atoms: _426  and  _428
REMARK  185  A    between atoms: _428  and  _429
REMARK  186  A    between atoms: _428  and  _431
REMARK  187  A    between atoms: _431  and  _432
REMARK  188  A    between atoms: _437  and  _439
REMARK  189  A    between atoms: _439  and  _440
REMARK  190  A    between atoms: _439  and  _442
REMARK  191  A    between atoms: _442  and  _443
REMARK  192  A    between atoms: _448  and  _450
REMARK  193  A    between atoms: _450  and  _451
REMARK  194  A    between atoms: _454  and  _456
REMARK  195  A    between atoms: _456  and  _457
REMARK  196  A    between atoms: _456  and  _459
REMARK  197  A    between atoms: _459  and  _460
REMARK  198  A    between atoms: _465  and  _467
REMARK  199  A    between atoms: _467  and  _468
REMARK  200  A    between atoms: _471  and  _473
REMARK  201  A    between atoms: _473  and  _474
REMARK  202  A    between atoms: _477  and  _479
REMARK  203  A    between atoms: _479  and  _480
REMARK  204  A    between atoms: _479  and  _482
REMARK  205  A    between atoms: _482  and  _483
REMARK  206  A    between atoms: _488  and  _490
REMARK  207  A    between atoms: _490  and  _491
REMARK  208  A    between atoms: _490  and  _493
REMARK  209  A    between atoms: _493  and  _494
REMARK  210  A    between atoms: _497  and  _499
REMARK  211  A    between atoms: _499  and  _500
REMARK  212  A    between atoms: _502  and  _504
REMARK  213  A    between atoms: _504  and  _505
REMARK  214  A    between atoms: _504  and  _507
REMARK  215  A    between atoms: _507  and  _508
REMARK  216  A    between atoms: _508  and  _509
REMARK  217  A    between atoms: _512  and  _514
REMARK  218  A    between atoms: _514  and  _515
REMARK  219  A    between atoms: _514  and  _517
REMARK  220  A    between atoms: _517  and  _518
REMARK  221  A    between atoms: _521  and  _523
REMARK  222  A    between atoms: _523  and  _524
REMARK  223  A    between atoms: _523  and  _526
REMARK  224  A    between atoms: _526  and  _527
REMARK  225  A    between atoms: _529  and  _531
REMARK  226  A    between atoms: _531  and  _532
REMARK  227  A    between atoms: _531  and  _534
REMARK  228  A    between atoms: _534  and  _535
REMARK  229  A    between atoms: _538  and  _540
REMARK  230  A    between atoms: _540  and  _541
REMARK  231  A    between atoms: _540  and  _543
REMARK  232  A    between atoms: _543  and  _544
REMARK  233  A    between atoms: _544  and  _545
REMARK  234  A    between atoms: _547  and  _549
REMARK  235  A    between atoms: _549  and  _550
REMARK  236  A    between atoms: _553  and  _555
REMARK  237  A    between atoms: _555  and  _556
REMARK  238  A    between atoms: _559  and  _561
REMARK  239  A    between atoms: _561  and  _562
REMARK  240  A    between atoms: _561  and  _564
REMARK  241  A    between atoms: _564  and  _565
REMARK  242  A    between atoms: _568  and  _570
REMARK  243  A    between atoms: _570  and  _571
REMARK  244  A    between atoms: _574  and  _576
REMARK  245  A    between atoms: _576  and  _577
REMARK  246  A    between atoms: _580  and  _582
REMARK  247  A    between atoms: _582  and  _583
REMARK  248  A    between atoms: _585  and  _587
REMARK  249  A    between atoms: _587  and  _588
REMARK  250  A    between atoms: _587  and  _590
REMARK  251  A    between atoms: _590  and  _591
REMARK                            x       y       z     vdW  Elec       q    Type
REMARK                         _______ _______ _______ _____ _____    ______ ____
ROOT
ATOM      1  C   THR A   1      10.804  24.657  26.569  0.00  0.00    +0.241 C 
ATOM      2  O   THR A   1      10.906  24.138  27.669  0.00  0.00    -0.274 OA
ATOM      3  N   GLU A   2      11.617  25.617  26.140  0.00  0.00    -0.298 N 
ATOM      4  H   GLU A   2      11.429  26.061  25.219  0.00  0.00    +0.150 HD
ENDROOT
BRANCH   1   5
ATOM      5  CA  THR A   1       9.694  24.227  25.619  0.00  0.00    +0.172 C 
BRANCH   5   6
ATOM      6  N   THR A   1       9.049  25.384  25.001  0.00  0.00    -0.236 NA
ATOM      7  H   THR A   1       9.056  25.455  23.963  0.00  0.00    +0.142 HD
ENDBRANCH   5   6
BRANCH   5   8
ATOM      8  CB  THR A   1      10.283  23.306  24.528  0.00  0.00    +0.135 C 
ATOM      9  CG2 THR A   1      10.902  22.044  25.130  0.00  0.00    +0.034 C 
BRANCH   8  10
ATOM     10  OG1 THR A   1       9.234  22.809  23.687  0.00  0.00    -0.383 OA
ATOM     11  HG1 THR A   1       8.770  23.570  23.256  0.00  0.00    +0.210 HD
ENDBRANCH   8  10
ENDBRANCH   5   8
ENDBRANCH   1   5
BRANCH   3  12
ATOM     12  CA  GLU A   2      12.767  26.068  26.922  0.00  0.00    +0.137 C 
BRANCH  12  13
ATOM     13  C   GLU A   2      12.338  26.729  28.235  0.00  0.00    +0.227 C 
ATOM     14  O   GLU A   2      12.918  26.454  29.281  0.00  0.00    -0.286 OA
ENDBRANCH  12  13
BRANCH  12  15
ATOM     15  CB  GLU A   2      13.661  27.013  26.100  0.00  0.00    +0.039 C 
BRANCH  15  16
ATOM     16  CG  GLU A   2      14.790  26.300  25.355  0.00  0.00    +0.116 C 
BRANCH  16  17
ATOM     17  CD  GLU A   2      15.481  27.190  24.335  0.00  0.00    +0.365 C 
ATOM     18  OE2 GLU A   2      15.826  28.344  24.685  0.00  0.00    -0.246 OA
ATOM     19  OE1 GLU A   2      15.685  26.737  23.186  0.00  0.00    -0.246 OA
ENDBRANCH  16  17
ENDBRANCH  15  16
ENDBRANCH  12  15
ENDBRANCH   3  12
TORSDOF 9
REMARK  Name = ../refined-set-2016/3cda/3cda_pocket.pdb
REMARK  251 active torsions:
REMARK  status: ('A' for Active; 'I' for Inactive)
REMARK    1  A    between atoms: _1  and  _3
REMARK    2  A    between atoms: _3  and  _4
REMARK    3  A    between atoms: _3  and  _6
REMARK    4  A    between atoms: _6  and  _7
REMARK    5  A    between atoms: _12  and  _13
REMARK    6  A    between atoms: _15  and  _17
REMARK    7  A    between atoms: _17  and  _18
REMARK    8  A    between atoms: _17  and  _20
REMARK    9  A    between atoms: _20  and  _21
REMARK   10  A    between atoms: _21  and  _22
REMARK   11  A    between atoms: _25  and  _27
REMARK   12  A    between atoms: _27  and  _28
REMARK   13  A    between atoms: _27  and  _30
REMARK   14  A    between atoms: _30  and  _31
REMARK   15  A    between atoms: _34  and  _36
REMARK   16  A    between atoms: _36  and  _37
REMARK   17  A    between atoms: _36  and  _39
REMARK   18  A    between atoms: _39  and  _40
REMARK   19  A    between atoms: _40  and  _41
REMARK   20  A    between atoms: _41  and  _42
REMARK   21  A    between atoms: _51  and  _53
REMARK   22  A    between atoms: _53  and  _54
REMARK   23  A    between atoms: _57  and  _58
REMARK   24  A    between atoms: _63  and  _65
REMARK   25  A    between atoms: _65  and  _66
REMARK   26  A    between atoms: _65  and  _68
REMARK   27  A    between atoms: _68  and  _69
REMARK   28  A    between atoms: _69  and  _70
REMARK   29  A    between atoms: _72  and  _74
REMARK   30  A    between atoms: _74  and  _75
REMARK   31  A    between atoms: _74  and  _77
REMARK   32  A    between atoms: _77  and  _78
REMARK   33  A    between atoms: _78  and  _79
REMARK   34  A    between atoms: _81  and  _83
REMARK   35  A    between atoms: _83  and  _84
REMARK   36  A    between atoms: _83  and  _86
REMARK   37  A    between atoms: _86  and  _87
REMARK   38  A    between atoms: _92  and  _94
REMARK   39  A    between atoms: _94  and  _95
REMARK   40  A    between atoms: _94  and  _97
REMARK   41  A    between atoms: _97  and  _98
REMARK   42  A    between atoms: _101  and  _103
REMARK   43  A    between atoms: _103  and  _104
REMARK   44  A    between atoms: _103  and  _106
REMARK   45  A    between atoms: _106  and  _107
REMARK   46  A    between atoms: _109  and  _111
REMARK   47  A    between atoms: _111  and  _112
REMARK   48  A    between atoms: _111  and  _114
REMARK   49  A    between atoms: _114  and  _115
REMARK   50  A    between atoms: _115  and  _116
REMARK   51  A    between atoms: _116  and  _117
REMARK   52  A    between atoms: _117  and  _118
REMARK   53  A    between atoms: _122  and  _124
REMARK   54  A    between atoms: _124  and  _125
REMARK   55  A    between atoms: _124  and  _127
REMARK   56  A    between atoms: _127  and  _128
REMARK   57  A    between atoms: _131  and  _133
REMARK   58  A    between atoms: _133  and  _134
REMARK   59  A    between atoms: _133  and  _136
REMARK   60  A    between atoms: _136  and  _137
REMARK   61  A    between atoms: _137  and  _138
REMARK   62  A    between atoms: _141  and  _143
REMARK   63  A    between atoms: _143  and  _144
REMARK   64  A    between atoms: _147  and  _149
REMARK   65  A    between atoms: _149  and  _150
REMARK   66  A    between atoms: _149  and  _152
REMARK   67  A    between atoms: _155  and  _157
REMARK   68  A    between atoms: _157  and  _158
REMARK   69  A    between atoms: _157  and  _160
REMARK   70  A    between atoms: _160  and  _161
REMARK   71  A    between atoms: _163  and  _165
REMARK   72  A    between atoms: _165  and  _166
REMARK   73  A    between atoms: _168  and  _170
REMARK   74  A    between atoms: _170  and  _171
REMARK   75  A    between atoms: _170  and  _173
REMARK   76  A    between atoms: _173  and  _174
REMARK   77  A    between atoms: _179  and  _181
REMARK   78  A    between atoms: _181  and  _182
REMARK   79  A    between atoms: _181  and  _184
REMARK   80  A    between atoms: _184  and  _185
REMARK   81  A    between atoms: _190  and  _191
REMARK   82  A    between atoms: _193  and  _195
REMARK   83  A    between atoms: _195  and  _196
REMARK   84  A    between atoms: _195  and  _198
REMARK   85  A    between atoms: _200  and  _202
REMARK   86  A    between atoms: _202  and  _203
REMARK   87  A    between atoms: _202  and  _205
REMARK   88  A    between atoms: _205  and  _206
REMARK   89  A    between atoms: _209  and  _211
REMARK   90  A    between atoms: _211  and  _212
REMARK   91  A    between atoms: _211  and  _214
REMARK   92  A    between atoms: _214  and  _215
REMARK   93  A    between atoms: _218  and  _220
REMARK   94  A    between atoms: _220  and  _221
REMARK   95  A    between atoms: _220  and  _223
REMARK   96  A    between atoms: _223  and  _224
REMARK   97  A    between atoms: _224  and  _225
REMARK   98  A    between atoms: _225  and  _226
REMARK   99  A    between atoms: _226  and  _227
REMARK  100  A    between atoms: _231  and  _233
REMARK  101  A    between atoms: _233  and  _234
REMARK  102  A    between atoms: _233  and  _236
REMARK  103  A    between atoms: _236  and  _237
REMARK  104  A    between atoms: _237  and  _238
REMARK  105  A    between atoms: _238  and  _239
REMARK  106  A    between atoms: _239  and  _240
REMARK  107  A    between atoms: _244  and  _246
REMARK  108  A    between atoms: _246  and  _247
REMARK  109  A    between atoms: _246  and  _249
REMARK  110  A    between atoms: _249  and  _250
REMARK  111  A    between atoms: _250  and  _251
REMARK  112  A    between atoms: _251  and  _252
REMARK  113  A    between atoms: _261  and  _263
REMARK  114  A    between atoms: _263  and  _264
REMARK  115  A    between atoms: _263  and  _266
REMARK  116  A    between atoms: _266  and  _267
REMARK  117  A    between atoms: _270  and  _272
REMARK  118  A    between atoms: _272  and  _273
REMARK  119  A    between atoms: _276  and  _278
REMARK  120  A    between atoms: _278  and  _279
REMARK  121  A    between atoms: _278  and  _281
REMARK  122  A    between atoms: _281  and  _282
REMARK  123  A    between atoms: _282  and  _283
REMARK  124  A    between atoms: _288  and  _290
REMARK  125  A    between atoms: _290  and  _291
REMARK  126  A    between atoms: _290  and  _293
REMARK  127  A    between atoms: _293  and  _294
REMARK  128  A    between atoms: _294  and  _295
REMARK  129  A    between atoms: _298  and  _300
REMARK  130  A    between atoms: _300  and  _301
REMARK  131  A    between atoms: _303  and  _305
REMARK  132  A    between atoms: _305  and  _306
REMARK  133  A    between atoms: _305  and  _308
REMARK  134  A    between atoms: _310  and  _312
REMARK  135  A    between atoms: _312  and  _313
REMARK  136  A    between atoms: _312  and  _315
REMARK  137  A    between atoms: _315  and  _316
REMARK  138  A    between atoms: _319  and  _321
REMARK  139  A    between atoms: _321  and  _322
REMARK  140  A    between atoms: _321  and  _324
REMARK  141  A    between atoms: _327  and  _329
REMARK  142  A    between atoms: _329  and  _330
REMARK  143  A    between atoms: _333  and  _335
REMARK  144  A    between atoms: _335  and  _336
REMARK  145  A    between atoms: _335  and  _338
REMARK  146  A    between atoms: _338  and  _339
REMARK  147  A    between atoms: _341  and  _343
REMARK  148  A    between atoms: _343  and  _344
REMARK  149  A    between atoms: _343  and  _346
REMARK  150  A    between atoms: _346  and  _347
REMARK  151  A    between atoms: _350  and  _352
REMARK  152  A    between atoms: _352  and  _353
REMARK  153  A    between atoms: _352  and  _355
REMARK  154  A    between atoms: _355  and  _356
REMARK  155  A    between atoms: _361  and  _363
REMARK  156  A    between atoms: _363  and  _364
REMARK  157  A    between atoms: _363  and  _366
REMARK  158  A    between atoms: _366  and  _367
REMARK  159  A    between atoms: _367  and  _368
REMARK  160  A    between atoms: _368  and  _369
REMARK  161  A    between atoms: _378  and  _380
REMARK  162  A    between atoms: _380  and  _381
REMARK  163  A    between atoms: _383  and  _385
REMARK  164  A    between atoms: _385  and  _386
REMARK  165  A    between atoms: _385  and  _388
REMARK  166  A    between atoms: _391  and  _393
REMARK  167  A    between atoms: _393  and  _394
REMARK  168  A    between atoms: _393  and  _396
REMARK  169  A    between atoms: _396  and  _397
REMARK  170  A    between atoms: _400  and  _402
REMARK  171  A    between atoms: _402  and  _403
REMARK  172  A    between atoms: _402  and  _405
REMARK  173  A    between atoms: _405  and  _406
REMARK  174  A    between atoms: _406  and  _407
REMARK  175  A    between atoms: _407  and  _408
REMARK  176  A    between atoms: _408  and  _409
REMARK  177  A    between atoms: _413  and  _415
REMARK  178  A    between atoms: _415  and  _416
REMARK  179  A    between atoms: _415  and  _418
REMARK  180  A    between atoms: _418  and  _419
REMARK  181  A    between atoms: _419  and  _420
REMARK  182  A    between atoms: _420  and  _421
REMARK  183  A    between atoms: _421  and  _422
REMARK  184  A    between atoms: _426  and  _428
REMARK  185  A    between atoms: _428  and  _429
REMARK  186  A    between atoms: _428  and  _431
REMARK  187  A    between atoms: _431  and  _432
REMARK  188  A    between atoms: _437  and  _439
REMARK  189  A    between atoms: _439  and  _440
REMARK  190  A    between atoms: _439  and  _442
REMARK  191  A    between atoms: _442  and  _443
REMARK  192  A    between atoms: _448  and  _450
REMARK  193  A    between atoms: _450  and  _451
REMARK  194  A    between atoms: _454  and  _456
REMARK  195  A    between atoms: _456  and  _457
REMARK  196  A    between atoms: _456  and  _459
REMARK  197  A    between atoms: _459  and  _460
REMARK  198  A    between atoms: _465  and  _467
REMARK  199  A    between atoms: _467  and  _468
REMARK  200  A    between atoms: _471  and  _473
REMARK  201  A    between atoms: _473  and  _474
REMARK  202  A    between atoms: _477  and  _479
REMARK  203  A    between atoms: _479  and  _480
REMARK  204  A    between atoms: _479  and  _482
REMARK  205  A    between atoms: _482  and  _483
REMARK  206  A    between atoms: _488  and  _490
REMARK  207  A    between atoms: _490  and  _491
REMARK  208  A    between atoms: _490  and  _493
REMARK  209  A    between atoms: _493  and  _494
REMARK  210  A    between atoms: _497  and  _499
REMARK  211  A    between atoms: _499  and  _500
REMARK  212  A    between atoms: _502  and  _504
REMARK  213  A    between atoms: _504  and  _505
REMARK  214  A    between atoms: _504  and  _507
REMARK  215  A    between atoms: _507  and  _508
REMARK  216  A    between atoms: _508  and  _509
REMARK  217  A    between atoms: _512  and  _514
REMARK  218  A    between atoms: _514  and  _515
REMARK  219  A    between atoms: _514  and  _517
REMARK  220  A    between atoms: _517  and  _518
REMARK  221  A    between atoms: _521  and  _523
REMARK  222  A    between atoms: _523  and  _524
REMARK  223  A    between atoms: _523  and  _526
REMARK  224  A    between atoms: _526  and  _527
REMARK  225  A    between atoms: _529  and  _531
REMARK  226  A    between atoms: _531  and  _532
REMARK  227  A    between atoms: _531  and  _534
REMARK  228  A    between atoms: _534  and  _535
REMARK  229  A    between atoms: _538  and  _540
REMARK  230  A    between atoms: _540  and  _541
REMARK  231  A    between atoms: _540  and  _543
REMARK  232  A    between atoms: _543  and  _544
REMARK  233  A    between atoms: _544  and  _545
REMARK  234  A    between atoms: _547  and  _549
REMARK  235  A    between atoms: _549  and  _550
REMARK  236  A    between atoms: _553  and  _555
REMARK  237  A    between atoms: _555  and  _556
REMARK  238  A    between atoms: _559  and  _561
REMARK  239  A    between atoms: _561  and  _562
REMARK  240  A    between atoms: _561  and  _564
REMARK  241  A    between atoms: _564  and  _565
REMARK  242  A    between atoms: _568  and  _570
REMARK  243  A    between atoms: _570  and  _571
REMARK  244  A    between atoms: _574  and  _576
REMARK  245  A    between atoms: _576  and  _577
REMARK  246  A    between atoms: _580  and  _582
REMARK  247  A    between atoms: _582  and  _583
REMARK  248  A    between atoms: _585  and  _587
REMARK  249  A    between atoms: _587  and  _588
REMARK  250  A    between atoms: _587  and  _590
REMARK  251  A    between atoms: _590  and  _591
REMARK                            x       y       z     vdW  Elec       q    Type
REMARK                         _______ _______ _______ _____ _____    ______ ____
ROOT
ATOM      1  C   TYR A   6       9.667  13.022  20.033  0.00  0.00    +0.241 C 
ATOM      2  O   TYR A   6       8.512  12.752  20.347  0.00  0.00    -0.273 OA
ATOM      3  N   CYS A   7       9.966  14.002  19.182  0.00  0.00    -0.296 N 
ATOM      4  H   CYS A   7      10.947  14.104  18.853  0.00  0.00    +0.150 HD
ENDROOT
BRANCH   1   5
ATOM      5  CA  TYR A   6      10.838  12.194  20.583  0.00  0.00    +0.153 C 
BRANCH   5   7
ATOM      6  C   ASN A   5      12.795  12.132  19.120  0.00  0.00    +0.241 C 
ATOM      7  N   TYR A   6      12.119  12.706  20.114  0.00  0.00    -0.297 N 
ATOM      8  H   TYR A   6      12.520  13.550  20.572  0.00  0.00    +0.150 HD
ATOM      9  O   ASN A   5      12.377  11.161  18.494  0.00  0.00    -0.273 OA
BRANCH   6  10
ATOM     10  CA  ASN A   5      14.135  12.764  18.747  0.00  0.00    +0.158 C 
BRANCH  10  13
ATOM     11  C   GLY A   4      15.091  13.132  20.998  0.00  0.00    +0.243 C 
ATOM     12  O   GLY A   4      15.007  11.945  21.320  0.00  0.00    -0.273 OA
ATOM     13  N   ASN A   5      14.726  13.598  19.807  0.00  0.00    -0.297 N 
ATOM     14  H   ASN A   5      14.866  14.610  19.613  0.00  0.00    +0.150 HD
BRANCH  11  15
ATOM     15  CA  GLY A   4      15.647  14.151  21.980  0.00  0.00    +0.176 C 
BRANCH  15  17
ATOM     16  C   SER A   3      15.824  16.460  21.198  0.00  0.00    +0.243 C 
ATOM     17  N   GLY A   4      15.122  15.488  21.775  0.00  0.00    -0.295 N 
ATOM     18  H   GLY A   4      14.154  15.696  22.093  0.00  0.00    +0.150 HD
ATOM     19  O   SER A   3      17.011  16.350  20.899  0.00  0.00    -0.273 OA
BRANCH  16  20
ATOM     20  CA  SER A   3      15.073  17.760  20.942  0.00  0.00    +0.178 C 
BRANCH  20  23
ATOM     21  C   VAL A   2      15.116  19.641  22.497  0.00  0.00    +0.241 C 
ATOM     22  O   VAL A   2      13.887  19.737  22.524  0.00  0.00    -0.273 OA
ATOM     23  N   SER A   3      15.756  18.838  21.656  0.00  0.00    -0.295 N 
ATOM     24  H   SER A   3      16.774  18.980  21.500  0.00  0.00    +0.150 HD
BRANCH  21  25
ATOM     25  CA  VAL A   2      15.988  20.461  23.459  0.00  0.00    +0.148 C 
BRANCH  25  28
ATOM     26  C   ALA A   1      17.481  18.685  24.211  0.00  0.00    +0.238 C 
ATOM     27  O   ALA A   1      16.549  18.004  24.626  0.00  0.00    -0.274 OA
ATOM     28  N   VAL A   2      17.307  19.866  23.631  0.00  0.00    -0.297 N 
ATOM     29  H   VAL A   2      18.141  20.385  23.288  0.00  0.00    +0.150 HD
BRANCH  26  30
ATOM     30  CA  ALA A   1      18.922  18.199  24.337  0.00  0.00    +0.145 C 
ATOM     31  CB  ALA A   1      19.221  17.155  23.279  0.00  0.00    +0.028 C 
BRANCH  30  32
ATOM     32  N   ALA A   1      19.156  17.649  25.668  0.00  0.00    -0.238 NA
ATOM     33  H   ALA A   1      18.344  17.315  26.225  0.00  0.00    +0.142 HD
ENDBRANCH  30  32
ENDBRANCH  26  30
ENDBRANCH  25  28
BRANCH  25  34
ATOM     34  CB  VAL A   2      16.082  21.944  23.025  0.00  0.00    +0.027 C 
ATOM     35  CG2 VAL A   2      14.695  22.579  22.989  0.00  0.00    +0.002 C 
ATOM     36  CG1 VAL A   2      16.779  22.097  21.670  0.00  0.00    +0.002 C 
ENDBRANCH  25  34
ENDBRANCH  21  25
ENDBRANCH  20  23
BRANCH  20  37
ATOM     37  CB  SER A   3      15.004  18.034  19.439  0.00  0.00    +0.166 C 
BRANCH  37  38
ATOM     38  OG  SER A   3      14.597  16.868  18.733  0.00  0.00    -0.380 OA
ATOM     39  H   SER A   3      14.559  17.067  17.764  0.00  0.00    +0.211 HD
ENDBRANCH  37  38
ENDBRANCH  20  37
ENDBRANCH  16  20
ENDBRANCH  15  17
ENDBRANCH  11  15
ENDBRANCH  10  13
BRANCH  10  40
ATOM     40  CB  ASN A   5      15.126  11.694  18.252  0.00  0.00    +0.114 C 
BRANCH  40  41
ATOM     41  CG  ASN A   5      16.099  12.233  17.212  0.00  0.00    +0.222 C 
ATOM     42  OD1 ASN A   5      16.093  13.426  16.890  0.00  0.00    -0.275 OA
ATOM     43  ND2 ASN A   5      16.948  11.353  16.690  0.00  0.00    -0.329 N 
ATOM     44 HD21 ASN A   5      16.916  10.358  16.991  0.00  0.00    +0.145 HD
ATOM     45 HD22 ASN A   5      17.644  11.660  15.980  0.00  0.00    +0.145 HD
ENDBRANCH  40  41
ENDBRANCH  10  40
ENDBRANCH   6  10
ENDBRANCH   5   7
BRANCH   5  46
ATOM     46  CB  TYR A   6      10.831  12.191  22.112  0.00  0.00    +0.055 C 
BRANCH  46  47
ATOM     47  CG  TYR A   6       9.736  11.360  22.745  0.00  0.00    -0.020 A 
ATOM     48  CD2 TYR A   6       8.799  11.946  23.593  0.00  0.00    -0.001 A 
ATOM     49  CE2 TYR A   6       7.794  11.196  24.187  0.00  0.00    +0.036 A 
ATOM     50  CZ  TYR A   6       7.708   9.848  23.930  0.00  0.00    +0.134 A 
ATOM     51  CE1 TYR A   6       8.624   9.232  23.089  0.00  0.00    +0.036 A 
ATOM     52  CD1 TYR A   6       9.638   9.993  22.503  0.00  0.00    -0.001 A 
BRANCH  50  53
ATOM     53  OH  TYR A   6       6.705   9.112  24.522  0.00  0.00    -0.506 OA
ATOM     54  HH  TYR A   6       6.780   8.166  24.238  0.00  0.00    +0.292 HD
ENDBRANCH  50  53
ENDBRANCH  46  47
ENDBRANCH   5  46
ENDBRANCH   1   5
BRANCH   3  55
ATOM     55  CA  CYS A   7       8.953  14.939  18.698  0.00  0.00    +0.160 C 
BRANCH  55  56
ATOM     56  C   CYS A   7       7.897  14.291  17.778  0.00  0.00    +0.242 C 
ATOM     57  O   CYS A   7       6.714  14.493  18.024  0.00  0.00    -0.273 OA
ATOM     58  N   THR A   8       8.258  13.551  16.721  0.00  0.00    -0.295 N 
ATOM     59  H   THR A   8       7.497  13.023  16.248  0.00  0.00    +0.150 HD
BRANCH  58  60
ATOM     60  CA  THR A   8       9.596  13.400  16.157  0.00  0.00    +0.176 C 
BRANCH  60  61
ATOM     61  C   THR A   8       9.657  14.169  14.838  0.00  0.00    +0.243 C 
ATOM     62  N   ASP A   9      10.716  14.938  14.653  0.00  0.00    -0.296 N 
ATOM     63  H   ASP A   9      11.485  14.915  15.353  0.00  0.00    +0.150 HD
ATOM     64  O   THR A   8       8.780  14.037  13.985  0.00  0.00    -0.273 OA
BRANCH  62  65
ATOM     65  CA  ASP A   9      10.838  15.817  13.498  0.00  0.00    +0.160 C 
BRANCH  65  66
ATOM     66  C   ASP A   9      11.791  15.270  12.437  0.00  0.00    +0.241 C 
ATOM     67  O   ASP A   9      12.963  15.043  12.722  0.00  0.00    -0.273 OA
ATOM     68  N   LYS A  10      11.276  15.090  11.217  0.00  0.00    -0.297 N 
ATOM     69  H   LYS A  10      10.249  15.208  11.104  0.00  0.00    +0.150 HD
BRANCH  68  70
ATOM     70  CA  LYS A  10      12.059  14.736  10.020  0.00  0.00    +0.149 C 
BRANCH  70  71
ATOM     71  C   LYS A  10      12.751  13.372  10.045  0.00  0.00    +0.241 C 
ATOM     72  N   LYS A  11      12.264  12.484  10.901  0.00  0.00    -0.298 N 
ATOM     73  H   LYS A  11      11.591  12.808  11.625  0.00  0.00    +0.150 HD
ATOM     74  O   LYS A  10      13.735  13.145   9.321  0.00  0.00    -0.273 OA
BRANCH  72  75
ATOM     75  CA  LYS A  11      12.632  11.071  10.871  0.00  0.00    +0.137 C 
BRANCH  75  76
ATOM     76  C   LYS A  11      11.338  10.274  11.002  0.00  0.00    +0.227 C 
ATOM     77  O   LYS A  11      10.429  10.718  11.686  0.00  0.00    -0.286 OA
ENDBRANCH  75  76
BRANCH  75  78
ATOM     78  CB  LYS A  11      13.534  10.714  12.048  0.00  0.00    +0.028 C 
BRANCH  78  79
ATOM     79  CG  LYS A  11      14.989  11.207  11.954  0.00  0.00    -0.000 C 
BRANCH  79  80
ATOM     80  CD  LYS A  11      15.157  12.650  12.390  0.00  0.00    -0.024 C 
BRANCH  80  81
ATOM     81  CE  LYS A  11      14.841  12.854  13.850  0.00  0.00    -0.086 C 
BRANCH  81  82
ATOM     82  NZ  LYS A  11      15.318  14.184  14.299  0.00  0.00    +0.380 N 
ATOM     83  HZ1 LYS A  11      15.093  14.310  15.307  0.00  0.00    -0.089 HD
ATOM     84  HZ2 LYS A  11      16.347  14.246  14.162  0.00  0.00    -0.089 HD
ATOM     85  HZ3 LYS A  11      14.847  14.926  13.742  0.00  0.00    -0.089 HD
ENDBRANCH  81  82
ENDBRANCH  80  81
ENDBRANCH  79  80
ENDBRANCH  78  79
ENDBRANCH  75  78
ENDBRANCH  72  75
ENDBRANCH  70  71
BRANCH  70  86
ATOM     86  CB  LYS A  10      13.074  15.836   9.710  0.00  0.00    +0.029 C 
BRANCH  86  87
ATOM     87  CG  LYS A  10      12.415  17.118   9.285  0.00  0.00    +0.000 C 
BRANCH  87  88
ATOM     88  CD  LYS A  10      13.407  18.232   9.197  0.00  0.00    -0.024 C 
BRANCH  88  89
ATOM     89  CE  LYS A  10      12.722  19.483   8.725  0.00  0.00    -0.086 C 
BRANCH  89  90
ATOM     90  NZ  LYS A  10      13.596  20.652   8.718  0.00  0.00    +0.380 N 
ATOM     91  HZ1 LYS A  10      13.944  20.829   9.682  0.00  0.00    -0.089 HD
ATOM     92  HZ2 LYS A  10      13.063  21.480   8.383  0.00  0.00    -0.089 HD
ATOM     93  HZ3 LYS A  10      14.402  20.477   8.084  0.00  0.00    -0.089 HD
ENDBRANCH  89  90
ENDBRANCH  88  89
ENDBRANCH  87  88
ENDBRANCH  86  87
ENDBRANCH  70  86
ENDBRANCH  68  70
ENDBRANCH  65  66
BRANCH  65  94
ATOM     94  CB  ASP A   9      11.327  17.178  13.973  0.00  0.00    +0.143 C 
BRANCH  94  95
ATOM     95  CG  ASP A   9      11.219  18.232  12.911  0.00  0.00    +0.367 C 
ATOM     96  OD2 ASP A   9      12.143  19.045  12.687  0.00  0.00    -0.246 OA
ATOM     97  OD1 ASP A   9      10.177  18.280  12.221  0.00  0.00    -0.246 OA
ENDBRANCH  94  95
ENDBRANCH  65  94
ENDBRANCH  62  65
ENDBRANCH  60  61
BRANCH  60  98
ATOM     98  CB  THR A   8       9.875  11.924  15.850  0.00  0.00    +0.137 C 
ATOM     99  CG2 THR A   8      11.326  11.719  15.387  0.00  0.00    +0.034 C 
BRANCH  98 100
ATOM    100  OG1 THR A   8       9.775  11.135  17.037  0.00  0.00    -0.382 OA
ATOM    101  HG1 THR A   8      10.436  11.455  17.701  0.00  0.00    +0.210 HD
ENDBRANCH  98 100
ENDBRANCH  60  98
ENDBRANCH  58  60
ENDBRANCH  55  56
BRANCH  55 102
ATOM    102  CB  CYS A   7       9.585  16.169  18.031  0.00  0.00    +0.098 C 
ATOM    103  SG  CYS A   7      11.271  16.569  18.574  0.00  0.00    -0.080 S 
ENDBRANCH  55 102
ENDBRANCH   3  55
TORSDOF 45
REMARK  Name = ../refined-set-2016/3cda/3cda_pocket.pdb
REMARK  251 active torsions:
REMARK  status: ('A' for Active; 'I' for Inactive)
REMARK    1  A    between atoms: _1  and  _3
REMARK    2  A    between atoms: _3  and  _4
REMARK    3  A    between atoms: _3  and  _6
REMARK    4  A    between atoms: _6  and  _7
REMARK    5  A    between atoms: _12  and  _13
REMARK    6  A    between atoms: _15  and  _17
REMARK    7  A    between atoms: _17  and  _18
REMARK    8  A    between atoms: _17  and  _20
REMARK    9  A    between atoms: _20  and  _21
REMARK   10  A    between atoms: _21  and  _22
REMARK   11  A    between atoms: _25  and  _27
REMARK   12  A    between atoms: _27  and  _28
REMARK   13  A    between atoms: _27  and  _30
REMARK   14  A    between atoms: _30  and  _31
REMARK   15  A    between atoms: _34  and  _36
REMARK   16  A    between atoms: _36  and  _37
REMARK   17  A    between atoms: _36  and  _39
REMARK   18  A    between atoms: _39  and  _40
REMARK   19  A    between atoms: _40  and  _41
REMARK   20  A    between atoms: _41  and  _42
REMARK   21  A    between atoms: _51  and  _53
REMARK   22  A    between atoms: _53  and  _54
REMARK   23  A    between atoms: _57  and  _58
REMARK   24  A    between atoms: _63  and  _65
REMARK   25  A    between atoms: _65  and  _66
REMARK   26  A    between atoms: _65  and  _68
REMARK   27  A    between atoms: _68  and  _69
REMARK   28  A    between atoms: _69  and  _70
REMARK   29  A    between atoms: _72  and  _74
REMARK   30  A    between atoms: _74  and  _75
REMARK   31  A    between atoms: _74  and  _77
REMARK   32  A    between atoms: _77  and  _78
REMARK   33  A    between atoms: _78  and  _79
REMARK   34  A    between atoms: _81  and  _83
REMARK   35  A    between atoms: _83  and  _84
REMARK   36  A    between atoms: _83  and  _86
REMARK   37  A    between atoms: _86  and  _87
REMARK   38  A    between atoms: _92  and  _94
REMARK   39  A    between atoms: _94  and  _95
REMARK   40  A    between atoms: _94  and  _97
REMARK   41  A    between atoms: _97  and  _98
REMARK   42  A    between atoms: _101  and  _103
REMARK   43  A    between atoms: _103  and  _104
REMARK   44  A    between atoms: _103  and  _106
REMARK   45  A    between atoms: _106  and  _107
REMARK   46  A    between atoms: _109  and  _111
REMARK   47  A    between atoms: _111  and  _112
REMARK   48  A    between atoms: _111  and  _114
REMARK   49  A    between atoms: _114  and  _115
REMARK   50  A    between atoms: _115  and  _116
REMARK   51  A    between atoms: _116  and  _117
REMARK   52  A    between atoms: _117  and  _118
REMARK   53  A    between atoms: _122  and  _124
REMARK   54  A    between atoms: _124  and  _125
REMARK   55  A    between atoms: _124  and  _127
REMARK   56  A    between atoms: _127  and  _128
REMARK   57  A    between atoms: _131  and  _133
REMARK   58  A    between atoms: _133  and  _134
REMARK   59  A    between atoms: _133  and  _136
REMARK   60  A    between atoms: _136  and  _137
REMARK   61  A    between atoms: _137  and  _138
REMARK   62  A    between atoms: _141  and  _143
REMARK   63  A    between atoms: _143  and  _144
REMARK   64  A    between atoms: _147  and  _149
REMARK   65  A    between atoms: _149  and  _150
REMARK   66  A    between atoms: _149  and  _152
REMARK   67  A    between atoms: _155  and  _157
REMARK   68  A    between atoms: _157  and  _158
REMARK   69  A    between atoms: _157  and  _160
REMARK   70  A    between atoms: _160  and  _161
REMARK   71  A    between atoms: _163  and  _165
REMARK   72  A    between atoms: _165  and  _166
REMARK   73  A    between atoms: _168  and  _170
REMARK   74  A    between atoms: _170  and  _171
REMARK   75  A    between atoms: _170  and  _173
REMARK   76  A    between atoms: _173  and  _174
REMARK   77  A    between atoms: _179  and  _181
REMARK   78  A    between atoms: _181  and  _182
REMARK   79  A    between atoms: _181  and  _184
REMARK   80  A    between atoms: _184  and  _185
REMARK   81  A    between atoms: _190  and  _191
REMARK   82  A    between atoms: _193  and  _195
REMARK   83  A    between atoms: _195  and  _196
REMARK   84  A    between atoms: _195  and  _198
REMARK   85  A    between atoms: _200  and  _202
REMARK   86  A    between atoms: _202  and  _203
REMARK   87  A    between atoms: _202  and  _205
REMARK   88  A    between atoms: _205  and  _206
REMARK   89  A    between atoms: _209  and  _211
REMARK   90  A    between atoms: _211  and  _212
REMARK   91  A    between atoms: _211  and  _214
REMARK   92  A    between atoms: _214  and  _215
REMARK   93  A    between atoms: _218  and  _220
REMARK   94  A    between atoms: _220  and  _221
REMARK   95  A    between atoms: _220  and  _223
REMARK   96  A    between atoms: _223  and  _224
REMARK   97  A    between atoms: _224  and  _225
REMARK   98  A    between atoms: _225  and  _226
REMARK   99  A    between atoms: _226  and  _227
REMARK  100  A    between atoms: _231  and  _233
REMARK  101  A    between atoms: _233  and  _234
REMARK  102  A    between atoms: _233  and  _236
REMARK  103  A    between atoms: _236  and  _237
REMARK  104  A    between atoms: _237  and  _238
REMARK  105  A    between atoms: _238  and  _239
REMARK  106  A    between atoms: _239  and  _240
REMARK  107  A    between atoms: _244  and  _246
REMARK  108  A    between atoms: _246  and  _247
REMARK  109  A    between atoms: _246  and  _249
REMARK  110  A    between atoms: _249  and  _250
REMARK  111  A    between atoms: _250  and  _251
REMARK  112  A    between atoms: _251  and  _252
REMARK  113  A    between atoms: _261  and  _263
REMARK  114  A    between atoms: _263  and  _264
REMARK  115  A    between atoms: _263  and  _266
REMARK  116  A    between atoms: _266  and  _267
REMARK  117  A    between atoms: _270  and  _272
REMARK  118  A    between atoms: _272  and  _273
REMARK  119  A    between atoms: _276  and  _278
REMARK  120  A    between atoms: _278  and  _279
REMARK  121  A    between atoms: _278  and  _281
REMARK  122  A    between atoms: _281  and  _282
REMARK  123  A    between atoms: _282  and  _283
REMARK  124  A    between atoms: _288  and  _290
REMARK  125  A    between atoms: _290  and  _291
REMARK  126  A    between atoms: _290  and  _293
REMARK  127  A    between atoms: _293  and  _294
REMARK  128  A    between atoms: _294  and  _295
REMARK  129  A    between atoms: _298  and  _300
REMARK  130  A    between atoms: _300  and  _301
REMARK  131  A    between atoms: _303  and  _305
REMARK  132  A    between atoms: _305  and  _306
REMARK  133  A    between atoms: _305  and  _308
REMARK  134  A    between atoms: _310  and  _312
REMARK  135  A    between atoms: _312  and  _313
REMARK  136  A    between atoms: _312  and  _315
REMARK  137  A    between atoms: _315  and  _316
REMARK  138  A    between atoms: _319  and  _321
REMARK  139  A    between atoms: _321  and  _322
REMARK  140  A    between atoms: _321  and  _324
REMARK  141  A    between atoms: _327  and  _329
REMARK  142  A    between atoms: _329  and  _330
REMARK  143  A    between atoms: _333  and  _335
REMARK  144  A    between atoms: _335  and  _336
REMARK  145  A    between atoms: _335  and  _338
REMARK  146  A    between atoms: _338  and  _339
REMARK  147  A    between atoms: _341  and  _343
REMARK  148  A    between atoms: _343  and  _344
REMARK  149  A    between atoms: _343  and  _346
REMARK  150  A    between atoms: _346  and  _347
REMARK  151  A    between atoms: _350  and  _352
REMARK  152  A    between atoms: _352  and  _353
REMARK  153  A    between atoms: _352  and  _355
REMARK  154  A    between atoms: _355  and  _356
REMARK  155  A    between atoms: _361  and  _363
REMARK  156  A    between atoms: _363  and  _364
REMARK  157  A    between atoms: _363  and  _366
REMARK  158  A    between atoms: _366  and  _367
REMARK  159  A    between atoms: _367  and  _368
REMARK  160  A    between atoms: _368  and  _369
REMARK  161  A    between atoms: _378  and  _380
REMARK  162  A    between atoms: _380  and  _381
REMARK  163  A    between atoms: _383  and  _385
REMARK  164  A    between atoms: _385  and  _386
REMARK  165  A    between atoms: _385  and  _388
REMARK  166  A    between atoms: _391  and  _393
REMARK  167  A    between atoms: _393  and  _394
REMARK  168  A    between atoms: _393  and  _396
REMARK  169  A    between atoms: _396  and  _397
REMARK  170  A    between atoms: _400  and  _402
REMARK  171  A    between atoms: _402  and  _403
REMARK  172  A    between atoms: _402  and  _405
REMARK  173  A    between atoms: _405  and  _406
REMARK  174  A    between atoms: _406  and  _407
REMARK  175  A    between atoms: _407  and  _408
REMARK  176  A    between atoms: _408  and  _409
REMARK  177  A    between atoms: _413  and  _415
REMARK  178  A    between atoms: _415  and  _416
REMARK  179  A    between atoms: _415  and  _418
REMARK  180  A    between atoms: _418  and  _419
REMARK  181  A    between atoms: _419  and  _420
REMARK  182  A    between atoms: _420  and  _421
REMARK  183  A    between atoms: _421  and  _422
REMARK  184  A    between atoms: _426  and  _428
REMARK  185  A    between atoms: _428  and  _429
REMARK  186  A    between atoms: _428  and  _431
REMARK  187  A    between atoms: _431  and  _432
REMARK  188  A    between atoms: _437  and  _439
REMARK  189  A    between atoms: _439  and  _440
REMARK  190  A    between atoms: _439  and  _442
REMARK  191  A    between atoms: _442  and  _443
REMARK  192  A    between atoms: _448  and  _450
REMARK  193  A    between atoms: _450  and  _451
REMARK  194  A    between atoms: _454  and  _456
REMARK  195  A    between atoms: _456  and  _457
REMARK  196  A    between atoms: _456  and  _459
REMARK  197  A    between atoms: _459  and  _460
REMARK  198  A    between atoms: _465  and  _467
REMARK  199  A    between atoms: _467  and  _468
REMARK  200  A    between atoms: _471  and  _473
REMARK  201  A    between atoms: _473  and  _474
REMARK  202  A    between atoms: _477  and  _479
REMARK  203  A    between atoms: _479  and  _480
REMARK  204  A    between atoms: _479  and  _482
REMARK  205  A    between atoms: _482  and  _483
REMARK  206  A    between atoms: _488  and  _490
REMARK  207  A    between atoms: _490  and  _491
REMARK  208  A    between atoms: _490  and  _493
REMARK  209  A    between atoms: _493  and  _494
REMARK  210  A    between atoms: _497  and  _499
REMARK  211  A    between atoms: _499  and  _500
REMARK  212  A    between atoms: _502  and  _504
REMARK  213  A    between atoms: _504  and  _505
REMARK  214  A    between atoms: _504  and  _507
REMARK  215  A    between atoms: _507  and  _508
REMARK  216  A    between atoms: _508  and  _509
REMARK  217  A    between atoms: _512  and  _514
REMARK  218  A    between atoms: _514  and  _515
REMARK  219  A    between atoms: _514  and  _517
REMARK  220  A    between atoms: _517  and  _518
REMARK  221  A    between atoms: _521  and  _523
REMARK  222  A    between atoms: _523  and  _524
REMARK  223  A    between atoms: _523  and  _526
REMARK  224  A    between atoms: _526  and  _527
REMARK  225  A    between atoms: _529  and  _531
REMARK  226  A    between atoms: _531  and  _532
REMARK  227  A    between atoms: _531  and  _534
REMARK  228  A    between atoms: _534  and  _535
REMARK  229  A    between atoms: _538  and  _540
REMARK  230  A    between atoms: _540  and  _541
REMARK  231  A    between atoms: _540  and  _543
REMARK  232  A    between atoms: _543  and  _544
REMARK  233  A    between atoms: _544  and  _545
REMARK  234  A    between atoms: _547  and  _549
REMARK  235  A    between atoms: _549  and  _550
REMARK  236  A    between atoms: _553  and  _555
REMARK  237  A    between atoms: _555  and  _556
REMARK  238  A    between atoms: _559  and  _561
REMARK  239  A    between atoms: _561  and  _562
REMARK  240  A    between atoms: _561  and  _564
REMARK  241  A    between atoms: _564  and  _565
REMARK  242  A    between atoms: _568  and  _570
REMARK  243  A    between atoms: _570  and  _571
REMARK  244  A    between atoms: _574  and  _576
REMARK  245  A    between atoms: _576  and  _577
REMARK  246  A    between atoms: _580  and  _582
REMARK  247  A    between atoms: _582  and  _583
REMARK  248  A    between atoms: _585  and  _587
REMARK  249  A    between atoms: _587  and  _588
REMARK  250  A    between atoms: _587  and  _590
REMARK  251  A    between atoms: _590  and  _591
REMARK                            x       y       z     vdW  Elec       q    Type
REMARK                         _______ _______ _______ _____ _____    ______ ____
ROOT
ATOM      1  NE  ARG A   1       6.785  16.770  15.415  0.00  0.00    -0.265 N 
ATOM      2  HE  ARG A   1       6.848  16.841  16.451  0.00  0.00    +0.259 HD
ATOM      3  CZ  ARG A   1       7.580  17.560  14.703  0.00  0.00    +0.342 C 
ATOM      4  NH2 ARG A   1       8.401  18.378  15.340  0.00  0.00    -0.292 N 
ATOM      5 HH21 ARG A   1       8.416  18.394  16.380  0.00  0.00    +0.255 HD
ATOM      6 HH22 ARG A   1       9.032  19.005  14.801  0.00  0.00    +0.255 HD
ATOM      7  NH1 ARG A   1       7.576  17.549  13.379  0.00  0.00    -0.292 N 
ATOM      8 HH11 ARG A   1       6.937  16.908  12.866  0.00  0.00    +0.255 HD
ATOM      9 HH12 ARG A   1       8.212  18.181  12.852  0.00  0.00    +0.255 HD
ENDROOT
BRANCH   1  10
ATOM     10  CD  ARG A   1       5.828  15.809  14.867  0.00  0.00    +0.174 C 
BRANCH  10  11
ATOM     11  CG  ARG A   1       4.408  16.325  14.841  0.00  0.00    +0.045 C 
BRANCH  11  12
ATOM     12  CB  ARG A   1       3.382  15.244  14.549  0.00  0.00    +0.029 C 
BRANCH  12  13
ATOM     13  CA  ARG A   1       1.931  15.672  14.789  0.00  0.00    +0.133 C 
BRANCH  13  14
ATOM     14  N   ARG A   1       1.029  14.534  14.656  0.00  0.00    -0.239 NA
ATOM     15  H   ARG A   1       0.565  14.368  13.740  0.00  0.00    +0.142 HD
ENDBRANCH  13  14
BRANCH  13  16
ATOM     16  C   ARG A   1       1.523  16.715  13.769  0.00  0.00    +0.224 C 
ATOM     17  O   ARG A   1       1.195  16.373  12.638  0.00  0.00    -0.287 OA
ENDBRANCH  13  16
ENDBRANCH  12  13
ENDBRANCH  11  12
ENDBRANCH  10  11
ENDBRANCH   1  10
TORSDOF 6
REMARK  Name = ../refined-set-2016/3cda/3cda_pocket.pdb
REMARK  251 active torsions:
REMARK  status: ('A' for Active; 'I' for Inactive)
REMARK    1  A    between atoms: _1  and  _3
REMARK    2  A    between atoms: _3  and  _4
REMARK    3  A    between atoms: _3  and  _6
REMARK    4  A    between atoms: _6  and  _7
REMARK    5  A    between atoms: _12  and  _13
REMARK    6  A    between atoms: _15  and  _17
REMARK    7  A    between atoms: _17  and  _18
REMARK    8  A    between atoms: _17  and  _20
REMARK    9  A    between atoms: _20  and  _21
REMARK   10  A    between atoms: _21  and  _22
REMARK   11  A    between atoms: _25  and  _27
REMARK   12  A    between atoms: _27  and  _28
REMARK   13  A    between atoms: _27  and  _30
REMARK   14  A    between atoms: _30  and  _31
REMARK   15  A    between atoms: _34  and  _36
REMARK   16  A    between atoms: _36  and  _37
REMARK   17  A    between atoms: _36  and  _39
REMARK   18  A    between atoms: _39  and  _40
REMARK   19  A    between atoms: _40  and  _41
REMARK   20  A    between atoms: _41  and  _42
REMARK   21  A    between atoms: _51  and  _53
REMARK   22  A    between atoms: _53  and  _54
REMARK   23  A    between atoms: _57  and  _58
REMARK   24  A    between atoms: _63  and  _65
REMARK   25  A    between atoms: _65  and  _66
REMARK   26  A    between atoms: _65  and  _68
REMARK   27  A    between atoms: _68  and  _69
REMARK   28  A    between atoms: _69  and  _70
REMARK   29  A    between atoms: _72  and  _74
REMARK   30  A    between atoms: _74  and  _75
REMARK   31  A    between atoms: _74  and  _77
REMARK   32  A    between atoms: _77  and  _78
REMARK   33  A    between atoms: _78  and  _79
REMARK   34  A    between atoms: _81  and  _83
REMARK   35  A    between atoms: _83  and  _84
REMARK   36  A    between atoms: _83  and  _86
REMARK   37  A    between atoms: _86  and  _87
REMARK   38  A    between atoms: _92  and  _94
REMARK   39  A    between atoms: _94  and  _95
REMARK   40  A    between atoms: _94  and  _97
REMARK   41  A    between atoms: _97  and  _98
REMARK   42  A    between atoms: _101  and  _103
REMARK   43  A    between atoms: _103  and  _104
REMARK   44  A    between atoms: _103  and  _106
REMARK   45  A    between atoms: _106  and  _107
REMARK   46  A    between atoms: _109  and  _111
REMARK   47  A    between atoms: _111  and  _112
REMARK   48  A    between atoms: _111  and  _114
REMARK   49  A    between atoms: _114  and  _115
REMARK   50  A    between atoms: _115  and  _116
REMARK   51  A    between atoms: _116  and  _117
REMARK   52  A    between atoms: _117  and  _118
REMARK   53  A    between atoms: _122  and  _124
REMARK   54  A    between atoms: _124  and  _125
REMARK   55  A    between atoms: _124  and  _127
REMARK   56  A    between atoms: _127  and  _128
REMARK   57  A    between atoms: _131  and  _133
REMARK   58  A    between atoms: _133  and  _134
REMARK   59  A    between atoms: _133  and  _136
REMARK   60  A    between atoms: _136  and  _137
REMARK   61  A    between atoms: _137  and  _138
REMARK   62  A    between atoms: _141  and  _143
REMARK   63  A    between atoms: _143  and  _144
REMARK   64  A    between atoms: _147  and  _149
REMARK   65  A    between atoms: _149  and  _150
REMARK   66  A    between atoms: _149  and  _152
REMARK   67  A    between atoms: _155  and  _157
REMARK   68  A    between atoms: _157  and  _158
REMARK   69  A    between atoms: _157  and  _160
REMARK   70  A    between atoms: _160  and  _161
REMARK   71  A    between atoms: _163  and  _165
REMARK   72  A    between atoms: _165  and  _166
REMARK   73  A    between atoms: _168  and  _170
REMARK   74  A    between atoms: _170  and  _171
REMARK   75  A    between atoms: _170  and  _173
REMARK   76  A    between atoms: _173  and  _174
REMARK   77  A    between atoms: _179  and  _181
REMARK   78  A    between atoms: _181  and  _182
REMARK   79  A    between atoms: _181  and  _184
REMARK   80  A    between atoms: _184  and  _185
REMARK   81  A    between atoms: _190  and  _191
REMARK   82  A    between atoms: _193  and  _195
REMARK   83  A    between atoms: _195  and  _196
REMARK   84  A    between atoms: _195  and  _198
REMARK   85  A    between atoms: _200  and  _202
REMARK   86  A    between atoms: _202  and  _203
REMARK   87  A    between atoms: _202  and  _205
REMARK   88  A    between atoms: _205  and  _206
REMARK   89  A    between atoms: _209  and  _211
REMARK   90  A    between atoms: _211  and  _212
REMARK   91  A    between atoms: _211  and  _214
REMARK   92  A    between atoms: _214  and  _215
REMARK   93  A    between atoms: _218  and  _220
REMARK   94  A    between atoms: _220  and  _221
REMARK   95  A    between atoms: _220  and  _223
REMARK   96  A    between atoms: _223  and  _224
REMARK   97  A    between atoms: _224  and  _225
REMARK   98  A    between atoms: _225  and  _226
REMARK   99  A    between atoms: _226  and  _227
REMARK  100  A    between atoms: _231  and  _233
REMARK  101  A    between atoms: _233  and  _234
REMARK  102  A    between atoms: _233  and  _236
REMARK  103  A    between atoms: _236  and  _237
REMARK  104  A    between atoms: _237  and  _238
REMARK  105  A    between atoms: _238  and  _239
REMARK  106  A    between atoms: _239  and  _240
REMARK  107  A    between atoms: _244  and  _246
REMARK  108  A    between atoms: _246  and  _247
REMARK  109  A    between atoms: _246  and  _249
REMARK  110  A    between atoms: _249  and  _250
REMARK  111  A    between atoms: _250  and  _251
REMARK  112  A    between atoms: _251  and  _252
REMARK  113  A    between atoms: _261  and  _263
REMARK  114  A    between atoms: _263  and  _264
REMARK  115  A    between atoms: _263  and  _266
REMARK  116  A    between atoms: _266  and  _267
REMARK  117  A    between atoms: _270  and  _272
REMARK  118  A    between atoms: _272  and  _273
REMARK  119  A    between atoms: _276  and  _278
REMARK  120  A    between atoms: _278  and  _279
REMARK  121  A    between atoms: _278  and  _281
REMARK  122  A    between atoms: _281  and  _282
REMARK  123  A    between atoms: _282  and  _283
REMARK  124  A    between atoms: _288  and  _290
REMARK  125  A    between atoms: _290  and  _291
REMARK  126  A    between atoms: _290  and  _293
REMARK  127  A    between atoms: _293  and  _294
REMARK  128  A    between atoms: _294  and  _295
REMARK  129  A    between atoms: _298  and  _300
REMARK  130  A    between atoms: _300  and  _301
REMARK  131  A    between atoms: _303  and  _305
REMARK  132  A    between atoms: _305  and  _306
REMARK  133  A    between atoms: _305  and  _308
REMARK  134  A    between atoms: _310  and  _312
REMARK  135  A    between atoms: _312  and  _313
REMARK  136  A    between atoms: _312  and  _315
REMARK  137  A    between atoms: _315  and  _316
REMARK  138  A    between atoms: _319  and  _321
REMARK  139  A    between atoms: _321  and  _322
REMARK  140  A    between atoms: _321  and  _324
REMARK  141  A    between atoms: _327  and  _329
REMARK  142  A    between atoms: _329  and  _330
REMARK  143  A    between atoms: _333  and  _335
REMARK  144  A    between atoms: _335  and  _336
REMARK  145  A    between atoms: _335  and  _338
REMARK  146  A    between atoms: _338  and  _339
REMARK  147  A    between atoms: _341  and  _343
REMARK  148  A    between atoms: _343  and  _344
REMARK  149  A    between atoms: _343  and  _346
REMARK  150  A    between atoms: _346  and  _347
REMARK  151  A    between atoms: _350  and  _352
REMARK  152  A    between atoms: _352  and  _353
REMARK  153  A    between atoms: _352  and  _355
REMARK  154  A    between atoms: _355  and  _356
REMARK  155  A    between atoms: _361  and  _363
REMARK  156  A    between atoms: _363  and  _364
REMARK  157  A    between atoms: _363  and  _366
REMARK  158  A    between atoms: _366  and  _367
REMARK  159  A    between atoms: _367  and  _368
REMARK  160  A    between atoms: _368  and  _369
REMARK  161  A    between atoms: _378  and  _380
REMARK  162  A    between atoms: _380  and  _381
REMARK  163  A    between atoms: _383  and  _385
REMARK  164  A    between atoms: _385  and  _386
REMARK  165  A    between atoms: _385  and  _388
REMARK  166  A    between atoms: _391  and  _393
REMARK  167  A    between atoms: _393  and  _394
REMARK  168  A    between atoms: _393  and  _396
REMARK  169  A    between atoms: _396  and  _397
REMARK  170  A    between atoms: _400  and  _402
REMARK  171  A    between atoms: _402  and  _403
REMARK  172  A    between atoms: _402  and  _405
REMARK  173  A    between atoms: _405  and  _406
REMARK  174  A    between atoms: _406  and  _407
REMARK  175  A    between atoms: _407  and  _408
REMARK  176  A    between atoms: _408  and  _409
REMARK  177  A    between atoms: _413  and  _415
REMARK  178  A    between atoms: _415  and  _416
REMARK  179  A    between atoms: _415  and  _418
REMARK  180  A    between atoms: _418  and  _419
REMARK  181  A    between atoms: _419  and  _420
REMARK  182  A    between atoms: _420  and  _421
REMARK  183  A    between atoms: _421  and  _422
REMARK  184  A    between atoms: _426  and  _428
REMARK  185  A    between atoms: _428  and  _429
REMARK  186  A    between atoms: _428  and  _431
REMARK  187  A    between atoms: _431  and  _432
REMARK  188  A    between atoms: _437  and  _439
REMARK  189  A    between atoms: _439  and  _440
REMARK  190  A    between atoms: _439  and  _442
REMARK  191  A    between atoms: _442  and  _443
REMARK  192  A    between atoms: _448  and  _450
REMARK  193  A    between atoms: _450  and  _451
REMARK  194  A    between atoms: _454  and  _456
REMARK  195  A    between atoms: _456  and  _457
REMARK  196  A    between atoms: _456  and  _459
REMARK  197  A    between atoms: _459  and  _460
REMARK  198  A    between atoms: _465  and  _467
REMARK  199  A    between atoms: _467  and  _468
REMARK  200  A    between atoms: _471  and  _473
REMARK  201  A    between atoms: _473  and  _474
REMARK  202  A    between atoms: _477  and  _479
REMARK  203  A    between atoms: _479  and  _480
REMARK  204  A    between atoms: _479  and  _482
REMARK  205  A    between atoms: _482  and  _483
REMARK  206  A    between atoms: _488  and  _490
REMARK  207  A    between atoms: _490  and  _491
REMARK  208  A    between atoms: _490  and  _493
REMARK  209  A    between atoms: _493  and  _494
REMARK  210  A    between atoms: _497  and  _499
REMARK  211  A    between atoms: _499  and  _500
REMARK  212  A    between atoms: _502  and  _504
REMARK  213  A    between atoms: _504  and  _505
REMARK  214  A    between atoms: _504  and  _507
REMARK  215  A    between atoms: _507  and  _508
REMARK  216  A    between atoms: _508  and  _509
REMARK  217  A    between atoms: _512  and  _514
REMARK  218  A    between atoms: _514  and  _515
REMARK  219  A    between atoms: _514  and  _517
REMARK  220  A    between atoms: _517  and  _518
REMARK  221  A    between atoms: _521  and  _523
REMARK  222  A    between atoms: _523  and  _524
REMARK  223  A    between atoms: _523  and  _526
REMARK  224  A    between atoms: _526  and  _527
REMARK  225  A    between atoms: _529  and  _531
REMARK  226  A    between atoms: _531  and  _532
REMARK  227  A    between atoms: _531  and  _534
REMARK  228  A    between atoms: _534  and  _535
REMARK  229  A    between atoms: _538  and  _540
REMARK  230  A    between atoms: _540  and  _541
REMARK  231  A    between atoms: _540  and  _543
REMARK  232  A    between atoms: _543  and  _544
REMARK  233  A    between atoms: _544  and  _545
REMARK  234  A    between atoms: _547  and  _549
REMARK  235  A    between atoms: _549  and  _550
REMARK  236  A    between atoms: _553  and  _555
REMARK  237  A    between atoms: _555  and  _556
REMARK  238  A    between atoms: _559  and  _561
REMARK  239  A    between atoms: _561  and  _562
REMARK  240  A    between atoms: _561  and  _564
REMARK  241  A    between atoms: _564  and  _565
REMARK  242  A    between atoms: _568  and  _570
REMARK  243  A    between atoms: _570  and  _571
REMARK  244  A    between atoms: _574  and  _576
REMARK  245  A    between atoms: _576  and  _577
REMARK  246  A    between atoms: _580  and  _582
REMARK  247  A    between atoms: _582  and  _583
REMARK  248  A    between atoms: _585  and  _587
REMARK  249  A    between atoms: _587  and  _588
REMARK  250  A    between atoms: _587  and  _590
REMARK  251  A    between atoms: _590  and  _591
REMARK                            x       y       z     vdW  Elec       q    Type
REMARK                         _______ _______ _______ _____ _____    ______ ____
ROOT
ATOM      1  CA  ASP A   1       9.659  22.578   4.641  0.00  0.00    +0.144 C 
ENDROOT
BRANCH   1   2
ATOM      2  N   ASP A   1       8.394  23.255   4.413  0.00  0.00    -0.239 NA
ATOM      3  H   ASP A   1       7.659  23.216   5.148  0.00  0.00    +0.142 HD
ENDBRANCH   1   2
BRANCH   1   4
ATOM      4  C   ASP A   1       9.573  21.187   4.028  0.00  0.00    +0.225 C 
ATOM      5  O   ASP A   1       9.005  20.278   4.626  0.00  0.00    -0.287 OA
ENDBRANCH   1   4
BRANCH   1   6
ATOM      6  CB  ASP A   1       9.937  22.511   6.142  0.00  0.00    +0.139 C 
BRANCH   6   7
ATOM      7  CG  ASP A   1      11.337  22.045   6.450  0.00  0.00    +0.367 C 
ATOM      8  OD2 ASP A   1      11.887  22.252   7.552  0.00  0.00    -0.246 OA
ATOM      9  OD1 ASP A   1      11.959  21.422   5.564  0.00  0.00    -0.246 OA
ENDBRANCH   6   7
ENDBRANCH   1   6
TORSDOF 4
REMARK  Name = ../refined-set-2016/3cda/3cda_pocket.pdb
REMARK  251 active torsions:
REMARK  status: ('A' for Active; 'I' for Inactive)
REMARK    1  A    between atoms: _1  and  _3
REMARK    2  A    between atoms: _3  and  _4
REMARK    3  A    between atoms: _3  and  _6
REMARK    4  A    between atoms: _6  and  _7
REMARK    5  A    between atoms: _12  and  _13
REMARK    6  A    between atoms: _15  and  _17
REMARK    7  A    between atoms: _17  and  _18
REMARK    8  A    between atoms: _17  and  _20
REMARK    9  A    between atoms: _20  and  _21
REMARK   10  A    between atoms: _21  and  _22
REMARK   11  A    between atoms: _25  and  _27
REMARK   12  A    between atoms: _27  and  _28
REMARK   13  A    between atoms: _27  and  _30
REMARK   14  A    between atoms: _30  and  _31
REMARK   15  A    between atoms: _34  and  _36
REMARK   16  A    between atoms: _36  and  _37
REMARK   17  A    between atoms: _36  and  _39
REMARK   18  A    between atoms: _39  and  _40
REMARK   19  A    between atoms: _40  and  _41
REMARK   20  A    between atoms: _41  and  _42
REMARK   21  A    between atoms: _51  and  _53
REMARK   22  A    between atoms: _53  and  _54
REMARK   23  A    between atoms: _57  and  _58
REMARK   24  A    between atoms: _63  and  _65
REMARK   25  A    between atoms: _65  and  _66
REMARK   26  A    between atoms: _65  and  _68
REMARK   27  A    between atoms: _68  and  _69
REMARK   28  A    between atoms: _69  and  _70
REMARK   29  A    between atoms: _72  and  _74
REMARK   30  A    between atoms: _74  and  _75
REMARK   31  A    between atoms: _74  and  _77
REMARK   32  A    between atoms: _77  and  _78
REMARK   33  A    between atoms: _78  and  _79
REMARK   34  A    between atoms: _81  and  _83
REMARK   35  A    between atoms: _83  and  _84
REMARK   36  A    between atoms: _83  and  _86
REMARK   37  A    between atoms: _86  and  _87
REMARK   38  A    between atoms: _92  and  _94
REMARK   39  A    between atoms: _94  and  _95
REMARK   40  A    between atoms: _94  and  _97
REMARK   41  A    between atoms: _97  and  _98
REMARK   42  A    between atoms: _101  and  _103
REMARK   43  A    between atoms: _103  and  _104
REMARK   44  A    between atoms: _103  and  _106
REMARK   45  A    between atoms: _106  and  _107
REMARK   46  A    between atoms: _109  and  _111
REMARK   47  A    between atoms: _111  and  _112
REMARK   48  A    between atoms: _111  and  _114
REMARK   49  A    between atoms: _114  and  _115
REMARK   50  A    between atoms: _115  and  _116
REMARK   51  A    between atoms: _116  and  _117
REMARK   52  A    between atoms: _117  and  _118
REMARK   53  A    between atoms: _122  and  _124
REMARK   54  A    between atoms: _124  and  _125
REMARK   55  A    between atoms: _124  and  _127
REMARK   56  A    between atoms: _127  and  _128
REMARK   57  A    between atoms: _131  and  _133
REMARK   58  A    between atoms: _133  and  _134
REMARK   59  A    between atoms: _133  and  _136
REMARK   60  A    between atoms: _136  and  _137
REMARK   61  A    between atoms: _137  and  _138
REMARK   62  A    between atoms: _141  and  _143
REMARK   63  A    between atoms: _143  and  _144
REMARK   64  A    between atoms: _147  and  _149
REMARK   65  A    between atoms: _149  and  _150
REMARK   66  A    between atoms: _149  and  _152
REMARK   67  A    between atoms: _155  and  _157
REMARK   68  A    between atoms: _157  and  _158
REMARK   69  A    between atoms: _157  and  _160
REMARK   70  A    between atoms: _160  and  _161
REMARK   71  A    between atoms: _163  and  _165
REMARK   72  A    between atoms: _165  and  _166
REMARK   73  A    between atoms: _168  and  _170
REMARK   74  A    between atoms: _170  and  _171
REMARK   75  A    between atoms: _170  and  _173
REMARK   76  A    between atoms: _173  and  _174
REMARK   77  A    between atoms: _179  and  _181
REMARK   78  A    between atoms: _181  and  _182
REMARK   79  A    between atoms: _181  and  _184
REMARK   80  A    between atoms: _184  and  _185
REMARK   81  A    between atoms: _190  and  _191
REMARK   82  A    between atoms: _193  and  _195
REMARK   83  A    between atoms: _195  and  _196
REMARK   84  A    between atoms: _195  and  _198
REMARK   85  A    between atoms: _200  and  _202
REMARK   86  A    between atoms: _202  and  _203
REMARK   87  A    between atoms: _202  and  _205
REMARK   88  A    between atoms: _205  and  _206
REMARK   89  A    between atoms: _209  and  _211
REMARK   90  A    between atoms: _211  and  _212
REMARK   91  A    between atoms: _211  and  _214
REMARK   92  A    between atoms: _214  and  _215
REMARK   93  A    between atoms: _218  and  _220
REMARK   94  A    between atoms: _220  and  _221
REMARK   95  A    between atoms: _220  and  _223
REMARK   96  A    between atoms: _223  and  _224
REMARK   97  A    between atoms: _224  and  _225
REMARK   98  A    between atoms: _225  and  _226
REMARK   99  A    between atoms: _226  and  _227
REMARK  100  A    between atoms: _231  and  _233
REMARK  101  A    between atoms: _233  and  _234
REMARK  102  A    between atoms: _233  and  _236
REMARK  103  A    between atoms: _236  and  _237
REMARK  104  A    between atoms: _237  and  _238
REMARK  105  A    between atoms: _238  and  _239
REMARK  106  A    between atoms: _239  and  _240
REMARK  107  A    between atoms: _244  and  _246
REMARK  108  A    between atoms: _246  and  _247
REMARK  109  A    between atoms: _246  and  _249
REMARK  110  A    between atoms: _249  and  _250
REMARK  111  A    between atoms: _250  and  _251
REMARK  112  A    between atoms: _251  and  _252
REMARK  113  A    between atoms: _261  and  _263
REMARK  114  A    between atoms: _263  and  _264
REMARK  115  A    between atoms: _263  and  _266
REMARK  116  A    between atoms: _266  and  _267
REMARK  117  A    between atoms: _270  and  _272
REMARK  118  A    between atoms: _272  and  _273
REMARK  119  A    between atoms: _276  and  _278
REMARK  120  A    between atoms: _278  and  _279
REMARK  121  A    between atoms: _278  and  _281
REMARK  122  A    between atoms: _281  and  _282
REMARK  123  A    between atoms: _282  and  _283
REMARK  124  A    between atoms: _288  and  _290
REMARK  125  A    between atoms: _290  and  _291
REMARK  126  A    between atoms: _290  and  _293
REMARK  127  A    between atoms: _293  and  _294
REMARK  128  A    between atoms: _294  and  _295
REMARK  129  A    between atoms: _298  and  _300
REMARK  130  A    between atoms: _300  and  _301
REMARK  131  A    between atoms: _303  and  _305
REMARK  132  A    between atoms: _305  and  _306
REMARK  133  A    between atoms: _305  and  _308
REMARK  134  A    between atoms: _310  and  _312
REMARK  135  A    between atoms: _312  and  _313
REMARK  136  A    between atoms: _312  and  _315
REMARK  137  A    between atoms: _315  and  _316
REMARK  138  A    between atoms: _319  and  _321
REMARK  139  A    between atoms: _321  and  _322
REMARK  140  A    between atoms: _321  and  _324
REMARK  141  A    between atoms: _327  and  _329
REMARK  142  A    between atoms: _329  and  _330
REMARK  143  A    between atoms: _333  and  _335
REMARK  144  A    between atoms: _335  and  _336
REMARK  145  A    between atoms: _335  and  _338
REMARK  146  A    between atoms: _338  and  _339
REMARK  147  A    between atoms: _341  and  _343
REMARK  148  A    between atoms: _343  and  _344
REMARK  149  A    between atoms: _343  and  _346
REMARK  150  A    between atoms: _346  and  _347
REMARK  151  A    between atoms: _350  and  _352
REMARK  152  A    between atoms: _352  and  _353
REMARK  153  A    between atoms: _352  and  _355
REMARK  154  A    between atoms: _355  and  _356
REMARK  155  A    between atoms: _361  and  _363
REMARK  156  A    between atoms: _363  and  _364
REMARK  157  A    between atoms: _363  and  _366
REMARK  158  A    between atoms: _366  and  _367
REMARK  159  A    between atoms: _367  and  _368
REMARK  160  A    between atoms: _368  and  _369
REMARK  161  A    between atoms: _378  and  _380
REMARK  162  A    between atoms: _380  and  _381
REMARK  163  A    between atoms: _383  and  _385
REMARK  164  A    between atoms: _385  and  _386
REMARK  165  A    between atoms: _385  and  _388
REMARK  166  A    between atoms: _391  and  _393
REMARK  167  A    between atoms: _393  and  _394
REMARK  168  A    between atoms: _393  and  _396
REMARK  169  A    between atoms: _396  and  _397
REMARK  170  A    between atoms: _400  and  _402
REMARK  171  A    between atoms: _402  and  _403
REMARK  172  A    between atoms: _402  and  _405
REMARK  173  A    between atoms: _405  and  _406
REMARK  174  A    between atoms: _406  and  _407
REMARK  175  A    between atoms: _407  and  _408
REMARK  176  A    between atoms: _408  and  _409
REMARK  177  A    between atoms: _413  and  _415
REMARK  178  A    between atoms: _415  and  _416
REMARK  179  A    between atoms: _415  and  _418
REMARK  180  A    between atoms: _418  and  _419
REMARK  181  A    between atoms: _419  and  _420
REMARK  182  A    between atoms: _420  and  _421
REMARK  183  A    between atoms: _421  and  _422
REMARK  184  A    between atoms: _426  and  _428
REMARK  185  A    between atoms: _428  and  _429
REMARK  186  A    between atoms: _428  and  _431
REMARK  187  A    between atoms: _431  and  _432
REMARK  188  A    between atoms: _437  and  _439
REMARK  189  A    between atoms: _439  and  _440
REMARK  190  A    between atoms: _439  and  _442
REMARK  191  A    between atoms: _442  and  _443
REMARK  192  A    between atoms: _448  and  _450
REMARK  193  A    between atoms: _450  and  _451
REMARK  194  A    between atoms: _454  and  _456
REMARK  195  A    between atoms: _456  and  _457
REMARK  196  A    between atoms: _456  and  _459
REMARK  197  A    between atoms: _459  and  _460
REMARK  198  A    between atoms: _465  and  _467
REMARK  199  A    between atoms: _467  and  _468
REMARK  200  A    between atoms: _471  and  _473
REMARK  201  A    between atoms: _473  and  _474
REMARK  202  A    between atoms: _477  and  _479
REMARK  203  A    between atoms: _479  and  _480
REMARK  204  A    between atoms: _479  and  _482
REMARK  205  A    between atoms: _482  and  _483
REMARK  206  A    between atoms: _488  and  _490
REMARK  207  A    between atoms: _490  and  _491
REMARK  208  A    between atoms: _490  and  _493
REMARK  209  A    between atoms: _493  and  _494
REMARK  210  A    between atoms: _497  and  _499
REMARK  211  A    between atoms: _499  and  _500
REMARK  212  A    between atoms: _502  and  _504
REMARK  213  A    between atoms: _504  and  _505
REMARK  214  A    between atoms: _504  and  _507
REMARK  215  A    between atoms: _507  and  _508
REMARK  216  A    between atoms: _508  and  _509
REMARK  217  A    between atoms: _512  and  _514
REMARK  218  A    between atoms: _514  and  _515
REMARK  219  A    between atoms: _514  and  _517
REMARK  220  A    between atoms: _517  and  _518
REMARK  221  A    between atoms: _521  and  _523
REMARK  222  A    between atoms: _523  and  _524
REMARK  223  A    between atoms: _523  and  _526
REMARK  224  A    between atoms: _526  and  _527
REMARK  225  A    between atoms: _529  and  _531
REMARK  226  A    between atoms: _531  and  _532
REMARK  227  A    between atoms: _531  and  _534
REMARK  228  A    between atoms: _534  and  _535
REMARK  229  A    between atoms: _538  and  _540
REMARK  230  A    between atoms: _540  and  _541
REMARK  231  A    between atoms: _540  and  _543
REMARK  232  A    between atoms: _543  and  _544
REMARK  233  A    between atoms: _544  and  _545
REMARK  234  A    between atoms: _547  and  _549
REMARK  235  A    between atoms: _549  and  _550
REMARK  236  A    between atoms: _553  and  _555
REMARK  237  A    between atoms: _555  and  _556
REMARK  238  A    between atoms: _559  and  _561
REMARK  239  A    between atoms: _561  and  _562
REMARK  240  A    between atoms: _561  and  _564
REMARK  241  A    between atoms: _564  and  _565
REMARK  242  A    between atoms: _568  and  _570
REMARK  243  A    between atoms: _570  and  _571
REMARK  244  A    between atoms: _574  and  _576
REMARK  245  A    between atoms: _576  and  _577
REMARK  246  A    between atoms: _580  and  _582
REMARK  247  A    between atoms: _582  and  _583
REMARK  248  A    between atoms: _585  and  _587
REMARK  249  A    between atoms: _587  and  _588
REMARK  250  A    between atoms: _587  and  _590
REMARK  251  A    between atoms: _590  and  _591
REMARK                            x       y       z     vdW  Elec       q    Type
REMARK                         _______ _______ _______ _____ _____    ______ ____
ROOT
ATOM      1  CA  GLN A   2       9.107  17.315   6.527  0.00  0.00    +0.137 C 
ENDROOT
BRANCH   1   4
ATOM      2  C   ALA A   1      11.262  17.143   5.402  0.00  0.00    +0.238 C 
ATOM      3  O   ALA A   1      11.426  16.001   5.807  0.00  0.00    -0.274 OA
ATOM      4  N   GLN A   2      10.201  17.870   5.734  0.00  0.00    -0.298 N 
ATOM      5  H   GLN A   2      10.148  18.860   5.421  0.00  0.00    +0.150 HD
BRANCH   2   6
ATOM      6  CA  ALA A   1      12.291  17.795   4.478  0.00  0.00    +0.145 C 
ATOM      7  CB  ALA A   1      13.438  18.345   5.290  0.00  0.00    +0.028 C 
BRANCH   6   8
ATOM      8  N   ALA A   1      11.687  18.846   3.655  0.00  0.00    -0.238 NA
ATOM      9  H   ALA A   1      12.011  19.827   3.769  0.00  0.00    +0.142 HD
ENDBRANCH   6   8
ENDBRANCH   2   6
ENDBRANCH   1   4
BRANCH   1  10
ATOM     10  C   GLN A   2       8.197  16.361   5.738  0.00  0.00    +0.227 C 
ATOM     11  O   GLN A   2       7.241  15.826   6.294  0.00  0.00    -0.286 OA
ENDBRANCH   1  10
BRANCH   1  12
ATOM     12  CB  GLN A   2       8.299  18.440   7.180  0.00  0.00    +0.037 C 
BRANCH  12  13
ATOM     13  CG  GLN A   2       9.039  19.071   8.366  0.00  0.00    +0.087 C 
BRANCH  13  14
ATOM     14  CD  GLN A   2       8.196  20.066   9.129  0.00  0.00    +0.219 C 
ATOM     15  NE2 GLN A   2       8.188  19.948  10.459  0.00  0.00    -0.329 N 
ATOM     16 HE21 GLN A   2       7.630  20.609  11.036  0.00  0.00    +0.145 HD
ATOM     17 HE22 GLN A   2       8.740  19.195  10.918  0.00  0.00    +0.145 HD
ATOM     18  OE1 GLN A   2       7.564  20.936   8.529  0.00  0.00    -0.275 OA
ENDBRANCH  13  14
ENDBRANCH  12  13
ENDBRANCH   1  12
TORSDOF 7
REMARK  Name = ../refined-set-2016/3cda/3cda_pocket.pdb
REMARK  251 active torsions:
REMARK  status: ('A' for Active; 'I' for Inactive)
REMARK    1  A    between atoms: _1  and  _3
REMARK    2  A    between atoms: _3  and  _4
REMARK    3  A    between atoms: _3  and  _6
REMARK    4  A    between atoms: _6  and  _7
REMARK    5  A    between atoms: _12  and  _13
REMARK    6  A    between atoms: _15  and  _17
REMARK    7  A    between atoms: _17  and  _18
REMARK    8  A    between atoms: _17  and  _20
REMARK    9  A    between atoms: _20  and  _21
REMARK   10  A    between atoms: _21  and  _22
REMARK   11  A    between atoms: _25  and  _27
REMARK   12  A    between atoms: _27  and  _28
REMARK   13  A    between atoms: _27  and  _30
REMARK   14  A    between atoms: _30  and  _31
REMARK   15  A    between atoms: _34  and  _36
REMARK   16  A    between atoms: _36  and  _37
REMARK   17  A    between atoms: _36  and  _39
REMARK   18  A    between atoms: _39  and  _40
REMARK   19  A    between atoms: _40  and  _41
REMARK   20  A    between atoms: _41  and  _42
REMARK   21  A    between atoms: _51  and  _53
REMARK   22  A    between atoms: _53  and  _54
REMARK   23  A    between atoms: _57  and  _58
REMARK   24  A    between atoms: _63  and  _65
REMARK   25  A    between atoms: _65  and  _66
REMARK   26  A    between atoms: _65  and  _68
REMARK   27  A    between atoms: _68  and  _69
REMARK   28  A    between atoms: _69  and  _70
REMARK   29  A    between atoms: _72  and  _74
REMARK   30  A    between atoms: _74  and  _75
REMARK   31  A    between atoms: _74  and  _77
REMARK   32  A    between atoms: _77  and  _78
REMARK   33  A    between atoms: _78  and  _79
REMARK   34  A    between atoms: _81  and  _83
REMARK   35  A    between atoms: _83  and  _84
REMARK   36  A    between atoms: _83  and  _86
REMARK   37  A    between atoms: _86  and  _87
REMARK   38  A    between atoms: _92  and  _94
REMARK   39  A    between atoms: _94  and  _95
REMARK   40  A    between atoms: _94  and  _97
REMARK   41  A    between atoms: _97  and  _98
REMARK   42  A    between atoms: _101  and  _103
REMARK   43  A    between atoms: _103  and  _104
REMARK   44  A    between atoms: _103  and  _106
REMARK   45  A    between atoms: _106  and  _107
REMARK   46  A    between atoms: _109  and  _111
REMARK   47  A    between atoms: _111  and  _112
REMARK   48  A    between atoms: _111  and  _114
REMARK   49  A    between atoms: _114  and  _115
REMARK   50  A    between atoms: _115  and  _116
REMARK   51  A    between atoms: _116  and  _117
REMARK   52  A    between atoms: _117  and  _118
REMARK   53  A    between atoms: _122  and  _124
REMARK   54  A    between atoms: _124  and  _125
REMARK   55  A    between atoms: _124  and  _127
REMARK   56  A    between atoms: _127  and  _128
REMARK   57  A    between atoms: _131  and  _133
REMARK   58  A    between atoms: _133  and  _134
REMARK   59  A    between atoms: _133  and  _136
REMARK   60  A    between atoms: _136  and  _137
REMARK   61  A    between atoms: _137  and  _138
REMARK   62  A    between atoms: _141  and  _143
REMARK   63  A    between atoms: _143  and  _144
REMARK   64  A    between atoms: _147  and  _149
REMARK   65  A    between atoms: _149  and  _150
REMARK   66  A    between atoms: _149  and  _152
REMARK   67  A    between atoms: _155  and  _157
REMARK   68  A    between atoms: _157  and  _158
REMARK   69  A    between atoms: _157  and  _160
REMARK   70  A    between atoms: _160  and  _161
REMARK   71  A    between atoms: _163  and  _165
REMARK   72  A    between atoms: _165  and  _166
REMARK   73  A    between atoms: _168  and  _170
REMARK   74  A    between atoms: _170  and  _171
REMARK   75  A    between atoms: _170  and  _173
REMARK   76  A    between atoms: _173  and  _174
REMARK   77  A    between atoms: _179  and  _181
REMARK   78  A    between atoms: _181  and  _182
REMARK   79  A    between atoms: _181  and  _184
REMARK   80  A    between atoms: _184  and  _185
REMARK   81  A    between atoms: _190  and  _191
REMARK   82  A    between atoms: _193  and  _195
REMARK   83  A    between atoms: _195  and  _196
REMARK   84  A    between atoms: _195  and  _198
REMARK   85  A    between atoms: _200  and  _202
REMARK   86  A    between atoms: _202  and  _203
REMARK   87  A    between atoms: _202  and  _205
REMARK   88  A    between atoms: _205  and  _206
REMARK   89  A    between atoms: _209  and  _211
REMARK   90  A    between atoms: _211  and  _212
REMARK   91  A    between atoms: _211  and  _214
REMARK   92  A    between atoms: _214  and  _215
REMARK   93  A    between atoms: _218  and  _220
REMARK   94  A    between atoms: _220  and  _221
REMARK   95  A    between atoms: _220  and  _223
REMARK   96  A    between atoms: _223  and  _224
REMARK   97  A    between atoms: _224  and  _225
REMARK   98  A    between atoms: _225  and  _226
REMARK   99  A    between atoms: _226  and  _227
REMARK  100  A    between atoms: _231  and  _233
REMARK  101  A    between atoms: _233  and  _234
REMARK  102  A    between atoms: _233  and  _236
REMARK  103  A    between atoms: _236  and  _237
REMARK  104  A    between atoms: _237  and  _238
REMARK  105  A    between atoms: _238  and  _239
REMARK  106  A    between atoms: _239  and  _240
REMARK  107  A    between atoms: _244  and  _246
REMARK  108  A    between atoms: _246  and  _247
REMARK  109  A    between atoms: _246  and  _249
REMARK  110  A    between atoms: _249  and  _250
REMARK  111  A    between atoms: _250  and  _251
REMARK  112  A    between atoms: _251  and  _252
REMARK  113  A    between atoms: _261  and  _263
REMARK  114  A    between atoms: _263  and  _264
REMARK  115  A    between atoms: _263  and  _266
REMARK  116  A    between atoms: _266  and  _267
REMARK  117  A    between atoms: _270  and  _272
REMARK  118  A    between atoms: _272  and  _273
REMARK  119  A    between atoms: _276  and  _278
REMARK  120  A    between atoms: _278  and  _279
REMARK  121  A    between atoms: _278  and  _281
REMARK  122  A    between atoms: _281  and  _282
REMARK  123  A    between atoms: _282  and  _283
REMARK  124  A    between atoms: _288  and  _290
REMARK  125  A    between atoms: _290  and  _291
REMARK  126  A    between atoms: _290  and  _293
REMARK  127  A    between atoms: _293  and  _294
REMARK  128  A    between atoms: _294  and  _295
REMARK  129  A    between atoms: _298  and  _300
REMARK  130  A    between atoms: _300  and  _301
REMARK  131  A    between atoms: _303  and  _305
REMARK  132  A    between atoms: _305  and  _306
REMARK  133  A    between atoms: _305  and  _308
REMARK  134  A    between atoms: _310  and  _312
REMARK  135  A    between atoms: _312  and  _313
REMARK  136  A    between atoms: _312  and  _315
REMARK  137  A    between atoms: _315  and  _316
REMARK  138  A    between atoms: _319  and  _321
REMARK  139  A    between atoms: _321  and  _322
REMARK  140  A    between atoms: _321  and  _324
REMARK  141  A    between atoms: _327  and  _329
REMARK  142  A    between atoms: _329  and  _330
REMARK  143  A    between atoms: _333  and  _335
REMARK  144  A    between atoms: _335  and  _336
REMARK  145  A    between atoms: _335  and  _338
REMARK  146  A    between atoms: _338  and  _339
REMARK  147  A    between atoms: _341  and  _343
REMARK  148  A    between atoms: _343  and  _344
REMARK  149  A    between atoms: _343  and  _346
REMARK  150  A    between atoms: _346  and  _347
REMARK  151  A    between atoms: _350  and  _352
REMARK  152  A    between atoms: _352  and  _353
REMARK  153  A    between atoms: _352  and  _355
REMARK  154  A    between atoms: _355  and  _356
REMARK  155  A    between atoms: _361  and  _363
REMARK  156  A    between atoms: _363  and  _364
REMARK  157  A    between atoms: _363  and  _366
REMARK  158  A    between atoms: _366  and  _367
REMARK  159  A    between atoms: _367  and  _368
REMARK  160  A    between atoms: _368  and  _369
REMARK  161  A    between atoms: _378  and  _380
REMARK  162  A    between atoms: _380  and  _381
REMARK  163  A    between atoms: _383  and  _385
REMARK  164  A    between atoms: _385  and  _386
REMARK  165  A    between atoms: _385  and  _388
REMARK  166  A    between atoms: _391  and  _393
REMARK  167  A    between atoms: _393  and  _394
REMARK  168  A    between atoms: _393  and  _396
REMARK  169  A    between atoms: _396  and  _397
REMARK  170  A    between atoms: _400  and  _402
REMARK  171  A    between atoms: _402  and  _403
REMARK  172  A    between atoms: _402  and  _405
REMARK  173  A    between atoms: _405  and  _406
REMARK  174  A    between atoms: _406  and  _407
REMARK  175  A    between atoms: _407  and  _408
REMARK  176  A    between atoms: _408  and  _409
REMARK  177  A    between atoms: _413  and  _415
REMARK  178  A    between atoms: _415  and  _416
REMARK  179  A    between atoms: _415  and  _418
REMARK  180  A    between atoms: _418  and  _419
REMARK  181  A    between atoms: _419  and  _420
REMARK  182  A    between atoms: _420  and  _421
REMARK  183  A    between atoms: _421  and  _422
REMARK  184  A    between atoms: _426  and  _428
REMARK  185  A    between atoms: _428  and  _429
REMARK  186  A    between atoms: _428  and  _431
REMARK  187  A    between atoms: _431  and  _432
REMARK  188  A    between atoms: _437  and  _439
REMARK  189  A    between atoms: _439  and  _440
REMARK  190  A    between atoms: _439  and  _442
REMARK  191  A    between atoms: _442  and  _443
REMARK  192  A    between atoms: _448  and  _450
REMARK  193  A    between atoms: _450  and  _451
REMARK  194  A    between atoms: _454  and  _456
REMARK  195  A    between atoms: _456  and  _457
REMARK  196  A    between atoms: _456  and  _459
REMARK  197  A    between atoms: _459  and  _460
REMARK  198  A    between atoms: _465  and  _467
REMARK  199  A    between atoms: _467  and  _468
REMARK  200  A    between atoms: _471  and  _473
REMARK  201  A    between atoms: _473  and  _474
REMARK  202  A    between atoms: _477  and  _479
REMARK  203  A    between atoms: _479  and  _480
REMARK  204  A    between atoms: _479  and  _482
REMARK  205  A    between atoms: _482  and  _483
REMARK  206  A    between atoms: _488  and  _490
REMARK  207  A    between atoms: _490  and  _491
REMARK  208  A    between atoms: _490  and  _493
REMARK  209  A    between atoms: _493  and  _494
REMARK  210  A    between atoms: _497  and  _499
REMARK  211  A    between atoms: _499  and  _500
REMARK  212  A    between atoms: _502  and  _504
REMARK  213  A    between atoms: _504  and  _505
REMARK  214  A    between atoms: _504  and  _507
REMARK  215  A    between atoms: _507  and  _508
REMARK  216  A    between atoms: _508  and  _509
REMARK  217  A    between atoms: _512  and  _514
REMARK  218  A    between atoms: _514  and  _515
REMARK  219  A    between atoms: _514  and  _517
REMARK  220  A    between atoms: _517  and  _518
REMARK  221  A    between atoms: _521  and  _523
REMARK  222  A    between atoms: _523  and  _524
REMARK  223  A    between atoms: _523  and  _526
REMARK  224  A    between atoms: _526  and  _527
REMARK  225  A    between atoms: _529  and  _531
REMARK  226  A    between atoms: _531  and  _532
REMARK  227  A    between atoms: _531  and  _534
REMARK  228  A    between atoms: _534  and  _535
REMARK  229  A    between atoms: _538  and  _540
REMARK  230  A    between atoms: _540  and  _541
REMARK  231  A    between atoms: _540  and  _543
REMARK  232  A    between atoms: _543  and  _544
REMARK  233  A    between atoms: _544  and  _545
REMARK  234  A    between atoms: _547  and  _549
REMARK  235  A    between atoms: _549  and  _550
REMARK  236  A    between atoms: _553  and  _555
REMARK  237  A    between atoms: _555  and  _556
REMARK  238  A    between atoms: _559  and  _561
REMARK  239  A    between atoms: _561  and  _562
REMARK  240  A    between atoms: _561  and  _564
REMARK  241  A    between atoms: _564  and  _565
REMARK  242  A    between atoms: _568  and  _570
REMARK  243  A    between atoms: _570  and  _571
REMARK  244  A    between atoms: _574  and  _576
REMARK  245  A    between atoms: _576  and  _577
REMARK  246  A    between atoms: _580  and  _582
REMARK  247  A    between atoms: _582  and  _583
REMARK  248  A    between atoms: _585  and  _587
REMARK  249  A    between atoms: _587  and  _588
REMARK  250  A    between atoms: _587  and  _590
REMARK  251  A    between atoms: _590  and  _591
REMARK                            x       y       z     vdW  Elec       q    Type
REMARK                         _______ _______ _______ _____ _____    ______ ____
ROOT
ATOM      1  CA  SER A   7      25.120  24.997  10.075  0.00  0.00    +0.178 C 
ENDROOT
BRANCH   1   2
ATOM      2  C   SER A   7      25.838  23.837   9.386  0.00  0.00    +0.243 C 
ATOM      3  O   SER A   7      26.844  23.345   9.886  0.00  0.00    -0.273 OA
ATOM      4  N   THR A   8      25.345  23.424   8.225  0.00  0.00    -0.295 N 
ATOM      5  H   THR A   8      24.499  23.888   7.837  0.00  0.00    +0.150 HD
BRANCH   4   6
ATOM      6  CA  THR A   8      25.967  22.330   7.480  0.00  0.00    +0.176 C 
BRANCH   6   7
ATOM      7  C   THR A   8      27.401  22.676   7.102  0.00  0.00    +0.243 C 
ATOM      8  O   THR A   8      28.280  21.817   7.110  0.00  0.00    -0.273 OA
ATOM      9  N   ASN A   9      27.612  23.947   6.778  0.00  0.00    -0.297 N 
ATOM     10  H   ASN A   9      26.800  24.596   6.779  0.00  0.00    +0.150 HD
BRANCH   9  11
ATOM     11  CA  ASN A   9      28.916  24.478   6.423  0.00  0.00    +0.158 C 
BRANCH  11  12
ATOM     12  C   ASN A   9      29.875  24.460   7.607  0.00  0.00    +0.241 C 
ATOM     13  N   ARG A  10      29.359  24.650   8.820  0.00  0.00    -0.297 N 
ATOM     14  H   ARG A  10      28.359  24.921   8.909  0.00  0.00    +0.150 HD
ATOM     15  O   ASN A   9      31.066  24.280   7.420  0.00  0.00    -0.273 OA
BRANCH  13  16
ATOM     16  CA  ARG A  10      30.165  24.487  10.031  0.00  0.00    +0.149 C 
BRANCH  16  17
ATOM     17  C   ARG A  10      30.604  23.035  10.174  0.00  0.00    +0.241 C 
ATOM     18  O   ARG A  10      31.757  22.772  10.492  0.00  0.00    -0.273 OA
ATOM     19  N   GLY A  11      29.690  22.098   9.932  0.00  0.00    -0.296 N 
ATOM     20  H   GLY A  11      28.713  22.387   9.723  0.00  0.00    +0.150 HD
BRANCH  19  21
ATOM     21  CA  GLY A  11      30.019  20.682   9.952  0.00  0.00    +0.163 C 
BRANCH  21  22
ATOM     22  C   GLY A  11      31.115  20.310   8.968  0.00  0.00    +0.229 C 
ATOM     23  O   GLY A  11      31.961  19.471   9.262  0.00  0.00    -0.286 OA
ENDBRANCH  21  22
ENDBRANCH  19  21
ENDBRANCH  16  17
BRANCH  16  24
ATOM     24  CB  ARG A  10      29.413  24.926  11.294  0.00  0.00    +0.033 C 
BRANCH  24  25
ATOM     25  CG  ARG A  10      30.316  24.974  12.531  0.00  0.00    +0.045 C 
BRANCH  25  26
ATOM     26  CD  ARG A  10      29.671  25.518  13.784  0.00  0.00    +0.174 C 
BRANCH  26  27
ATOM     27  NE  ARG A  10      28.665  24.614  14.338  0.00  0.00    -0.265 N 
ATOM     28  CZ  ARG A  10      28.060  24.788  15.510  0.00  0.00    +0.342 C 
ATOM     29  NH2 ARG A  10      28.351  25.829  16.283  0.00  0.00    -0.292 N 
ATOM     30 HH21 ARG A  10      27.868  25.950  17.196  0.00  0.00    +0.255 HD
ATOM     31 HH22 ARG A  10      29.061  26.523  15.975  0.00  0.00    +0.255 HD
ATOM     32  NH1 ARG A  10      27.145  23.915  15.910  0.00  0.00    -0.292 N 
ATOM     33 HH11 ARG A  10      26.668  24.044  16.825  0.00  0.00    +0.255 HD
ATOM     34 HH12 ARG A  10      26.905  23.101  15.309  0.00  0.00    +0.255 HD
ATOM     35  HE  ARG A  10      28.404  23.778  13.778  0.00  0.00    +0.259 HD
ENDBRANCH  26  27
ENDBRANCH  25  26
ENDBRANCH  24  25
ENDBRANCH  16  24
ENDBRANCH  13  16
ENDBRANCH  11  12
BRANCH  11  36
ATOM     36  CB  ASN A   9      28.759  25.905   5.889  0.00  0.00    +0.114 C 
BRANCH  36  37
ATOM     37  CG  ASN A   9      30.045  26.470   5.342  0.00  0.00    +0.222 C 
ATOM     38  ND2 ASN A   9      30.434  27.641   5.832  0.00  0.00    -0.329 N 
ATOM     39 HD21 ASN A   9      29.861  28.117   6.558  0.00  0.00    +0.145 HD
ATOM     40 HD22 ASN A   9      31.312  28.082   5.490  0.00  0.00    +0.145 HD
ATOM     41  OD1 ASN A   9      30.683  25.865   4.485  0.00  0.00    -0.275 OA
ENDBRANCH  36  37
ENDBRANCH  11  36
ENDBRANCH   9  11
ENDBRANCH   6   7
BRANCH   6  42
ATOM     42  CB  THR A   8      25.172  22.022   6.211  0.00  0.00    +0.137 C 
ATOM     43  CG2 THR A   8      25.730  20.791   5.517  0.00  0.00    +0.034 C 
BRANCH  42  44
ATOM     44  OG1 THR A   8      23.826  21.668   6.550  0.00  0.00    -0.382 OA
ATOM     45  HG1 THR A   8      23.398  22.422   7.028  0.00  0.00    +0.210 HD
ENDBRANCH  42  44
ENDBRANCH   6  42
ENDBRANCH   4   6
ENDBRANCH   1   2
BRANCH   1  47
ATOM     46  C   ALA A   6      25.831  26.757   8.557  0.00  0.00    +0.241 C 
ATOM     47  N   SER A   7      24.848  26.080   9.136  0.00  0.00    -0.295 N 
ATOM     48  H   SER A   7      23.862  26.327   8.916  0.00  0.00    +0.150 HD
ATOM     49  O   ALA A   6      27.015  26.514   8.767  0.00  0.00    -0.273 OA
BRANCH  46  50
ATOM     50  CA  ALA A   6      25.422  27.848   7.572  0.00  0.00    +0.149 C 
ATOM     51  CB  ALA A   6      24.978  29.103   8.315  0.00  0.00    +0.031 C 
BRANCH  50  53
ATOM     52  C   VAL A   5      24.527  26.348   5.857  0.00  0.00    +0.241 C 
ATOM     53  N   ALA A   6      24.358  27.369   6.696  0.00  0.00    -0.297 N 
ATOM     54  H   ALA A   6      23.433  27.843   6.728  0.00  0.00    +0.150 HD
ATOM     55  O   VAL A   5      25.581  25.731   5.744  0.00  0.00    -0.273 OA
BRANCH  52  56
ATOM     56  CA  VAL A   5      23.321  25.943   5.020  0.00  0.00    +0.149 C 
BRANCH  56  59
ATOM     57  C   LEU A   4      21.931  24.991   6.774  0.00  0.00    +0.241 C 
ATOM     58  O   LEU A   4      22.740  24.110   7.035  0.00  0.00    -0.273 OA
ATOM     59  N   VAL A   5      22.119  25.905   5.829  0.00  0.00    -0.297 N 
ATOM     60  H   VAL A   5      21.379  26.617   5.664  0.00  0.00    +0.150 HD
BRANCH  57  61
ATOM     61  CA  LEU A   4      20.621  25.085   7.543  0.00  0.00    +0.149 C 
BRANCH  61  64
ATOM     62  C   CYS A   3      21.081  27.101   8.799  0.00  0.00    +0.242 C 
ATOM     63  O   CYS A   3      22.030  26.568   9.353  0.00  0.00    -0.273 OA
ATOM     64  N   LEU A   4      20.346  26.471   7.888  0.00  0.00    -0.297 N 
ATOM     65  H   LEU A   4      19.567  26.974   7.417  0.00  0.00    +0.150 HD
BRANCH  62  66
ATOM     66  CA  CYS A   3      20.717  28.534   9.164  0.00  0.00    +0.160 C 
BRANCH  66  69
ATOM     67  C   GLY A   2      18.280  28.710   8.813  0.00  0.00    +0.243 C 
ATOM     68  O   GLY A   2      18.005  27.849   9.642  0.00  0.00    -0.273 OA
ATOM     69  N   CYS A   3      19.524  29.069   8.502  0.00  0.00    -0.296 N 
ATOM     70  H   CYS A   3      19.657  29.770   7.745  0.00  0.00    +0.150 HD
BRANCH  67  71
ATOM     71  CA  GLY A   2      17.182  29.420   8.052  0.00  0.00    +0.176 C 
BRANCH  71  73
ATOM     72  C   GLU A   1      16.365  27.545   6.708  0.00  0.00    +0.238 C 
ATOM     73  N   GLY A   2      16.144  28.522   7.587  0.00  0.00    -0.296 N 
ATOM     74  H   GLY A   2      15.180  28.646   7.957  0.00  0.00    +0.150 HD
ATOM     75  O   GLU A   1      17.485  27.230   6.298  0.00  0.00    -0.274 OA
BRANCH  72  76
ATOM     76  CA  GLU A   1      15.125  26.786   6.243  0.00  0.00    +0.145 C 
BRANCH  76  77
ATOM     77  N   GLU A   1      14.997  26.844   4.789  0.00  0.00    -0.238 NA
ATOM     78  H   GLU A   1      15.470  26.128   4.201  0.00  0.00    +0.142 HD
ENDBRANCH  76  77
BRANCH  76  79
ATOM     79  CB  GLU A   1      15.176  25.354   6.763  0.00  0.00    +0.038 C 
BRANCH  79  80
ATOM     80  CG  GLU A   1      15.191  25.341   8.290  0.00  0.00    +0.116 C 
BRANCH  80  81
ATOM     81  CD  GLU A   1      15.154  23.967   8.902  0.00  0.00    +0.365 C 
ATOM     82  OE2 GLU A   1      15.449  23.877  10.112  0.00  0.00    -0.246 OA
ATOM     83  OE1 GLU A   1      14.829  22.993   8.191  0.00  0.00    -0.246 OA
ENDBRANCH  80  81
ENDBRANCH  79  80
ENDBRANCH  76  79
ENDBRANCH  72  76
ENDBRANCH  71  73
ENDBRANCH  67  71
ENDBRANCH  66  69
BRANCH  66  84
ATOM     84  CB  CYS A   3      20.593  28.633  10.683  0.00  0.00    +0.098 C 
ATOM     85  SG  CYS A   3      20.427  30.318  11.257  0.00  0.00    -0.080 S 
ENDBRANCH  66  84
ENDBRANCH  62  66
ENDBRANCH  61  64
BRANCH  61  86
ATOM     86  CB  LEU A   4      19.488  24.474   6.721  0.00  0.00    +0.029 C 
BRANCH  86  87
ATOM     87  CG  LEU A   4      19.727  23.033   6.266  0.00  0.00    +0.002 C 
ATOM     88  CD2 LEU A   4      19.882  22.111   7.473  0.00  0.00    +0.000 C 
ATOM     89  CD1 LEU A   4      18.613  22.568   5.360  0.00  0.00    +0.000 C 
ENDBRANCH  86  87
ENDBRANCH  61  86
ENDBRANCH  57  61
ENDBRANCH  56  59
BRANCH  56  90
ATOM     90  CB  VAL A   5      23.182  26.882   3.794  0.00  0.00    +0.027 C 
ATOM     91  CG2 VAL A   5      24.509  26.951   3.005  0.00  0.00    +0.002 C 
ATOM     92  CG1 VAL A   5      22.036  26.427   2.879  0.00  0.00    +0.002 C 
ENDBRANCH  56  90
ENDBRANCH  52  56
ENDBRANCH  50  53
ENDBRANCH  46  50
ENDBRANCH   1  47
BRANCH   1  93
ATOM     93  CB  SER A   7      23.838  24.508  10.748  0.00  0.00    +0.166 C 
BRANCH  93  94
ATOM     94  OG  SER A   7      24.131  23.574  11.772  0.00  0.00    -0.380 OA
ATOM     95  H   SER A   7      23.287  23.272  12.193  0.00  0.00    +0.211 HD
ENDBRANCH  93  94
ENDBRANCH   1  93
TORSDOF 39
REMARK  Name = ../refined-set-2016/3cda/3cda_pocket.pdb
REMARK  251 active torsions:
REMARK  status: ('A' for Active; 'I' for Inactive)
REMARK    1  A    between atoms: _1  and  _3
REMARK    2  A    between atoms: _3  and  _4
REMARK    3  A    between atoms: _3  and  _6
REMARK    4  A    between atoms: _6  and  _7
REMARK    5  A    between atoms: _12  and  _13
REMARK    6  A    between atoms: _15  and  _17
REMARK    7  A    between atoms: _17  and  _18
REMARK    8  A    between atoms: _17  and  _20
REMARK    9  A    between atoms: _20  and  _21
REMARK   10  A    between atoms: _21  and  _22
REMARK   11  A    between atoms: _25  and  _27
REMARK   12  A    between atoms: _27  and  _28
REMARK   13  A    between atoms: _27  and  _30
REMARK   14  A    between atoms: _30  and  _31
REMARK   15  A    between atoms: _34  and  _36
REMARK   16  A    between atoms: _36  and  _37
REMARK   17  A    between atoms: _36  and  _39
REMARK   18  A    between atoms: _39  and  _40
REMARK   19  A    between atoms: _40  and  _41
REMARK   20  A    between atoms: _41  and  _42
REMARK   21  A    between atoms: _51  and  _53
REMARK   22  A    between atoms: _53  and  _54
REMARK   23  A    between atoms: _57  and  _58
REMARK   24  A    between atoms: _63  and  _65
REMARK   25  A    between atoms: _65  and  _66
REMARK   26  A    between atoms: _65  and  _68
REMARK   27  A    between atoms: _68  and  _69
REMARK   28  A    between atoms: _69  and  _70
REMARK   29  A    between atoms: _72  and  _74
REMARK   30  A    between atoms: _74  and  _75
REMARK   31  A    between atoms: _74  and  _77
REMARK   32  A    between atoms: _77  and  _78
REMARK   33  A    between atoms: _78  and  _79
REMARK   34  A    between atoms: _81  and  _83
REMARK   35  A    between atoms: _83  and  _84
REMARK   36  A    between atoms: _83  and  _86
REMARK   37  A    between atoms: _86  and  _87
REMARK   38  A    between atoms: _92  and  _94
REMARK   39  A    between atoms: _94  and  _95
REMARK   40  A    between atoms: _94  and  _97
REMARK   41  A    between atoms: _97  and  _98
REMARK   42  A    between atoms: _101  and  _103
REMARK   43  A    between atoms: _103  and  _104
REMARK   44  A    between atoms: _103  and  _106
REMARK   45  A    between atoms: _106  and  _107
REMARK   46  A    between atoms: _109  and  _111
REMARK   47  A    between atoms: _111  and  _112
REMARK   48  A    between atoms: _111  and  _114
REMARK   49  A    between atoms: _114  and  _115
REMARK   50  A    between atoms: _115  and  _116
REMARK   51  A    between atoms: _116  and  _117
REMARK   52  A    between atoms: _117  and  _118
REMARK   53  A    between atoms: _122  and  _124
REMARK   54  A    between atoms: _124  and  _125
REMARK   55  A    between atoms: _124  and  _127
REMARK   56  A    between atoms: _127  and  _128
REMARK   57  A    between atoms: _131  and  _133
REMARK   58  A    between atoms: _133  and  _134
REMARK   59  A    between atoms: _133  and  _136
REMARK   60  A    between atoms: _136  and  _137
REMARK   61  A    between atoms: _137  and  _138
REMARK   62  A    between atoms: _141  and  _143
REMARK   63  A    between atoms: _143  and  _144
REMARK   64  A    between atoms: _147  and  _149
REMARK   65  A    between atoms: _149  and  _150
REMARK   66  A    between atoms: _149  and  _152
REMARK   67  A    between atoms: _155  and  _157
REMARK   68  A    between atoms: _157  and  _158
REMARK   69  A    between atoms: _157  and  _160
REMARK   70  A    between atoms: _160  and  _161
REMARK   71  A    between atoms: _163  and  _165
REMARK   72  A    between atoms: _165  and  _166
REMARK   73  A    between atoms: _168  and  _170
REMARK   74  A    between atoms: _170  and  _171
REMARK   75  A    between atoms: _170  and  _173
REMARK   76  A    between atoms: _173  and  _174
REMARK   77  A    between atoms: _179  and  _181
REMARK   78  A    between atoms: _181  and  _182
REMARK   79  A    between atoms: _181  and  _184
REMARK   80  A    between atoms: _184  and  _185
REMARK   81  A    between atoms: _190  and  _191
REMARK   82  A    between atoms: _193  and  _195
REMARK   83  A    between atoms: _195  and  _196
REMARK   84  A    between atoms: _195  and  _198
REMARK   85  A    between atoms: _200  and  _202
REMARK   86  A    between atoms: _202  and  _203
REMARK   87  A    between atoms: _202  and  _205
REMARK   88  A    between atoms: _205  and  _206
REMARK   89  A    between atoms: _209  and  _211
REMARK   90  A    between atoms: _211  and  _212
REMARK   91  A    between atoms: _211  and  _214
REMARK   92  A    between atoms: _214  and  _215
REMARK   93  A    between atoms: _218  and  _220
REMARK   94  A    between atoms: _220  and  _221
REMARK   95  A    between atoms: _220  and  _223
REMARK   96  A    between atoms: _223  and  _224
REMARK   97  A    between atoms: _224  and  _225
REMARK   98  A    between atoms: _225  and  _226
REMARK   99  A    between atoms: _226  and  _227
REMARK  100  A    between atoms: _231  and  _233
REMARK  101  A    between atoms: _233  and  _234
REMARK  102  A    between atoms: _233  and  _236
REMARK  103  A    between atoms: _236  and  _237
REMARK  104  A    between atoms: _237  and  _238
REMARK  105  A    between atoms: _238  and  _239
REMARK  106  A    between atoms: _239  and  _240
REMARK  107  A    between atoms: _244  and  _246
REMARK  108  A    between atoms: _246  and  _247
REMARK  109  A    between atoms: _246  and  _249
REMARK  110  A    between atoms: _249  and  _250
REMARK  111  A    between atoms: _250  and  _251
REMARK  112  A    between atoms: _251  and  _252
REMARK  113  A    between atoms: _261  and  _263
REMARK  114  A    between atoms: _263  and  _264
REMARK  115  A    between atoms: _263  and  _266
REMARK  116  A    between atoms: _266  and  _267
REMARK  117  A    between atoms: _270  and  _272
REMARK  118  A    between atoms: _272  and  _273
REMARK  119  A    between atoms: _276  and  _278
REMARK  120  A    between atoms: _278  and  _279
REMARK  121  A    between atoms: _278  and  _281
REMARK  122  A    between atoms: _281  and  _282
REMARK  123  A    between atoms: _282  and  _283
REMARK  124  A    between atoms: _288  and  _290
REMARK  125  A    between atoms: _290  and  _291
REMARK  126  A    between atoms: _290  and  _293
REMARK  127  A    between atoms: _293  and  _294
REMARK  128  A    between atoms: _294  and  _295
REMARK  129  A    between atoms: _298  and  _300
REMARK  130  A    between atoms: _300  and  _301
REMARK  131  A    between atoms: _303  and  _305
REMARK  132  A    between atoms: _305  and  _306
REMARK  133  A    between atoms: _305  and  _308
REMARK  134  A    between atoms: _310  and  _312
REMARK  135  A    between atoms: _312  and  _313
REMARK  136  A    between atoms: _312  and  _315
REMARK  137  A    between atoms: _315  and  _316
REMARK  138  A    between atoms: _319  and  _321
REMARK  139  A    between atoms: _321  and  _322
REMARK  140  A    between atoms: _321  and  _324
REMARK  141  A    between atoms: _327  and  _329
REMARK  142  A    between atoms: _329  and  _330
REMARK  143  A    between atoms: _333  and  _335
REMARK  144  A    between atoms: _335  and  _336
REMARK  145  A    between atoms: _335  and  _338
REMARK  146  A    between atoms: _338  and  _339
REMARK  147  A    between atoms: _341  and  _343
REMARK  148  A    between atoms: _343  and  _344
REMARK  149  A    between atoms: _343  and  _346
REMARK  150  A    between atoms: _346  and  _347
REMARK  151  A    between atoms: _350  and  _352
REMARK  152  A    between atoms: _352  and  _353
REMARK  153  A    between atoms: _352  and  _355
REMARK  154  A    between atoms: _355  and  _356
REMARK  155  A    between atoms: _361  and  _363
REMARK  156  A    between atoms: _363  and  _364
REMARK  157  A    between atoms: _363  and  _366
REMARK  158  A    between atoms: _366  and  _367
REMARK  159  A    between atoms: _367  and  _368
REMARK  160  A    between atoms: _368  and  _369
REMARK  161  A    between atoms: _378  and  _380
REMARK  162  A    between atoms: _380  and  _381
REMARK  163  A    between atoms: _383  and  _385
REMARK  164  A    between atoms: _385  and  _386
REMARK  165  A    between atoms: _385  and  _388
REMARK  166  A    between atoms: _391  and  _393
REMARK  167  A    between atoms: _393  and  _394
REMARK  168  A    between atoms: _393  and  _396
REMARK  169  A    between atoms: _396  and  _397
REMARK  170  A    between atoms: _400  and  _402
REMARK  171  A    between atoms: _402  and  _403
REMARK  172  A    between atoms: _402  and  _405
REMARK  173  A    between atoms: _405  and  _406
REMARK  174  A    between atoms: _406  and  _407
REMARK  175  A    between atoms: _407  and  _408
REMARK  176  A    between atoms: _408  and  _409
REMARK  177  A    between atoms: _413  and  _415
REMARK  178  A    between atoms: _415  and  _416
REMARK  179  A    between atoms: _415  and  _418
REMARK  180  A    between atoms: _418  and  _419
REMARK  181  A    between atoms: _419  and  _420
REMARK  182  A    between atoms: _420  and  _421
REMARK  183  A    between atoms: _421  and  _422
REMARK  184  A    between atoms: _426  and  _428
REMARK  185  A    between atoms: _428  and  _429
REMARK  186  A    between atoms: _428  and  _431
REMARK  187  A    between atoms: _431  and  _432
REMARK  188  A    between atoms: _437  and  _439
REMARK  189  A    between atoms: _439  and  _440
REMARK  190  A    between atoms: _439  and  _442
REMARK  191  A    between atoms: _442  and  _443
REMARK  192  A    between atoms: _448  and  _450
REMARK  193  A    between atoms: _450  and  _451
REMARK  194  A    between atoms: _454  and  _456
REMARK  195  A    between atoms: _456  and  _457
REMARK  196  A    between atoms: _456  and  _459
REMARK  197  A    between atoms: _459  and  _460
REMARK  198  A    between atoms: _465  and  _467
REMARK  199  A    between atoms: _467  and  _468
REMARK  200  A    between atoms: _471  and  _473
REMARK  201  A    between atoms: _473  and  _474
REMARK  202  A    between atoms: _477  and  _479
REMARK  203  A    between atoms: _479  and  _480
REMARK  204  A    between atoms: _479  and  _482
REMARK  205  A    between atoms: _482  and  _483
REMARK  206  A    between atoms: _488  and  _490
REMARK  207  A    between atoms: _490  and  _491
REMARK  208  A    between atoms: _490  and  _493
REMARK  209  A    between atoms: _493  and  _494
REMARK  210  A    between atoms: _497  and  _499
REMARK  211  A    between atoms: _499  and  _500
REMARK  212  A    between atoms: _502  and  _504
REMARK  213  A    between atoms: _504  and  _505
REMARK  214  A    between atoms: _504  and  _507
REMARK  215  A    between atoms: _507  and  _508
REMARK  216  A    between atoms: _508  and  _509
REMARK  217  A    between atoms: _512  and  _514
REMARK  218  A    between atoms: _514  and  _515
REMARK  219  A    between atoms: _514  and  _517
REMARK  220  A    between atoms: _517  and  _518
REMARK  221  A    between atoms: _521  and  _523
REMARK  222  A    between atoms: _523  and  _524
REMARK  223  A    between atoms: _523  and  _526
REMARK  224  A    between atoms: _526  and  _527
REMARK  225  A    between atoms: _529  and  _531
REMARK  226  A    between atoms: _531  and  _532
REMARK  227  A    between atoms: _531  and  _534
REMARK  228  A    between atoms: _534  and  _535
REMARK  229  A    between atoms: _538  and  _540
REMARK  230  A    between atoms: _540  and  _541
REMARK  231  A    between atoms: _540  and  _543
REMARK  232  A    between atoms: _543  and  _544
REMARK  233  A    between atoms: _544  and  _545
REMARK  234  A    between atoms: _547  and  _549
REMARK  235  A    between atoms: _549  and  _550
REMARK  236  A    between atoms: _553  and  _555
REMARK  237  A    between atoms: _555  and  _556
REMARK  238  A    between atoms: _559  and  _561
REMARK  239  A    between atoms: _561  and  _562
REMARK  240  A    between atoms: _561  and  _564
REMARK  241  A    between atoms: _564  and  _565
REMARK  242  A    between atoms: _568  and  _570
REMARK  243  A    between atoms: _570  and  _571
REMARK  244  A    between atoms: _574  and  _576
REMARK  245  A    between atoms: _576  and  _577
REMARK  246  A    between atoms: _580  and  _582
REMARK  247  A    between atoms: _582  and  _583
REMARK  248  A    between atoms: _585  and  _587
REMARK  249  A    between atoms: _587  and  _588
REMARK  250  A    between atoms: _587  and  _590
REMARK  251  A    between atoms: _590  and  _591
REMARK                            x       y       z     vdW  Elec       q    Type
REMARK                         _______ _______ _______ _____ _____    ______ ____
ROOT
ATOM      1  CA  LEU A   2      31.835  22.967  17.251  0.00  0.00    +0.149 C 
ENDROOT
BRANCH   1   3
ATOM      2  C   VAL A   1      33.300  24.542  16.072  0.00  0.00    +0.238 C 
ATOM      3  N   LEU A   2      33.147  23.423  16.780  0.00  0.00    -0.297 N 
ATOM      4  H   LEU A   2      33.987  22.853  17.006  0.00  0.00    +0.150 HD
ATOM      5  O   VAL A   1      32.402  25.357  15.916  0.00  0.00    -0.274 OA
BRANCH   2   6
ATOM      6  CA  VAL A   1      34.684  24.797  15.461  0.00  0.00    +0.145 C 
BRANCH   6   7
ATOM      7  CB  VAL A   1      34.956  23.766  14.339  0.00  0.00    +0.025 C 
ATOM      8  CG2 VAL A   1      36.344  23.964  13.752  0.00  0.00    +0.002 C 
ATOM      9  CG1 VAL A   1      33.909  23.874  13.233  0.00  0.00    +0.002 C 
ENDBRANCH   6   7
BRANCH   6  10
ATOM     10  N   VAL A   1      35.720  24.772  16.493  0.00  0.00    -0.238 NA
ATOM     11  H   VAL A   1      36.351  23.948  16.559  0.00  0.00    +0.142 HD
ENDBRANCH   6  10
ENDBRANCH   2   6
ENDBRANCH   1   3
BRANCH   1  12
ATOM     12  C   LEU A   2      31.462  23.453  18.660  0.00  0.00    +0.241 C 
ATOM     13  N   LYS A   3      32.407  24.083  19.359  0.00  0.00    -0.298 N 
ATOM     14  H   LYS A   3      33.376  24.091  18.982  0.00  0.00    +0.150 HD
ATOM     15  O   LEU A   2      30.334  23.257  19.097  0.00  0.00    -0.273 OA
BRANCH  13  16
ATOM     16  CA  LYS A   3      32.148  24.769  20.640  0.00  0.00    +0.137 C 
BRANCH  16  17
ATOM     17  C   LYS A   3      31.779  23.844  21.793  0.00  0.00    +0.227 C 
ATOM     18  O   LYS A   3      31.153  24.272  22.755  0.00  0.00    -0.286 OA
ENDBRANCH  16  17
BRANCH  16  19
ATOM     19  CB  LYS A   3      31.050  25.837  20.493  0.00  0.00    +0.028 C 
BRANCH  19  20
ATOM     20  CG  LYS A   3      31.193  26.744  19.298  0.00  0.00    -0.000 C 
BRANCH  20  21
ATOM     21  CD  LYS A   3      32.467  27.568  19.367  0.00  0.00    -0.024 C 
BRANCH  21  22
ATOM     22  CE  LYS A   3      32.429  28.722  18.382  0.00  0.00    -0.086 C 
BRANCH  22  23
ATOM     23  NZ  LYS A   3      33.741  28.933  17.732  0.00  0.00    +0.380 N 
ATOM     24  HZ1 LYS A   3      34.456  29.145  18.457  0.00  0.00    -0.089 HD
ATOM     25  HZ2 LYS A   3      34.014  28.072  17.217  0.00  0.00    -0.089 HD
ATOM     26  HZ3 LYS A   3      33.673  29.730  17.067  0.00  0.00    -0.089 HD
ENDBRANCH  22  23
ENDBRANCH  21  22
ENDBRANCH  20  21
ENDBRANCH  19  20
ENDBRANCH  16  19
ENDBRANCH  13  16
ENDBRANCH   1  12
BRANCH   1  27
ATOM     27  CB  LEU A   2      31.742  21.432  17.173  0.00  0.00    +0.029 C 
BRANCH  27  28
ATOM     28  CG  LEU A   2      32.062  20.793  15.813  0.00  0.00    +0.002 C 
ATOM     29  CD2 LEU A   2      31.998  19.271  15.881  0.00  0.00    +0.000 C 
ATOM     30  CD1 LEU A   2      31.131  21.314  14.732  0.00  0.00    +0.000 C 
ENDBRANCH  27  28
ENDBRANCH   1  27
TORSDOF 14
REMARK  Name = ../refined-set-2016/3cda/3cda_pocket.pdb
REMARK  251 active torsions:
REMARK  status: ('A' for Active; 'I' for Inactive)
REMARK    1  A    between atoms: _1  and  _3
REMARK    2  A    between atoms: _3  and  _4
REMARK    3  A    between atoms: _3  and  _6
REMARK    4  A    between atoms: _6  and  _7
REMARK    5  A    between atoms: _12  and  _13
REMARK    6  A    between atoms: _15  and  _17
REMARK    7  A    between atoms: _17  and  _18
REMARK    8  A    between atoms: _17  and  _20
REMARK    9  A    between atoms: _20  and  _21
REMARK   10  A    between atoms: _21  and  _22
REMARK   11  A    between atoms: _25  and  _27
REMARK   12  A    between atoms: _27  and  _28
REMARK   13  A    between atoms: _27  and  _30
REMARK   14  A    between atoms: _30  and  _31
REMARK   15  A    between atoms: _34  and  _36
REMARK   16  A    between atoms: _36  and  _37
REMARK   17  A    between atoms: _36  and  _39
REMARK   18  A    between atoms: _39  and  _40
REMARK   19  A    between atoms: _40  and  _41
REMARK   20  A    between atoms: _41  and  _42
REMARK   21  A    between atoms: _51  and  _53
REMARK   22  A    between atoms: _53  and  _54
REMARK   23  A    between atoms: _57  and  _58
REMARK   24  A    between atoms: _63  and  _65
REMARK   25  A    between atoms: _65  and  _66
REMARK   26  A    between atoms: _65  and  _68
REMARK   27  A    between atoms: _68  and  _69
REMARK   28  A    between atoms: _69  and  _70
REMARK   29  A    between atoms: _72  and  _74
REMARK   30  A    between atoms: _74  and  _75
REMARK   31  A    between atoms: _74  and  _77
REMARK   32  A    between atoms: _77  and  _78
REMARK   33  A    between atoms: _78  and  _79
REMARK   34  A    between atoms: _81  and  _83
REMARK   35  A    between atoms: _83  and  _84
REMARK   36  A    between atoms: _83  and  _86
REMARK   37  A    between atoms: _86  and  _87
REMARK   38  A    between atoms: _92  and  _94
REMARK   39  A    between atoms: _94  and  _95
REMARK   40  A    between atoms: _94  and  _97
REMARK   41  A    between atoms: _97  and  _98
REMARK   42  A    between atoms: _101  and  _103
REMARK   43  A    between atoms: _103  and  _104
REMARK   44  A    between atoms: _103  and  _106
REMARK   45  A    between atoms: _106  and  _107
REMARK   46  A    between atoms: _109  and  _111
REMARK   47  A    between atoms: _111  and  _112
REMARK   48  A    between atoms: _111  and  _114
REMARK   49  A    between atoms: _114  and  _115
REMARK   50  A    between atoms: _115  and  _116
REMARK   51  A    between atoms: _116  and  _117
REMARK   52  A    between atoms: _117  and  _118
REMARK   53  A    between atoms: _122  and  _124
REMARK   54  A    between atoms: _124  and  _125
REMARK   55  A    between atoms: _124  and  _127
REMARK   56  A    between atoms: _127  and  _128
REMARK   57  A    between atoms: _131  and  _133
REMARK   58  A    between atoms: _133  and  _134
REMARK   59  A    between atoms: _133  and  _136
REMARK   60  A    between atoms: _136  and  _137
REMARK   61  A    between atoms: _137  and  _138
REMARK   62  A    between atoms: _141  and  _143
REMARK   63  A    between atoms: _143  and  _144
REMARK   64  A    between atoms: _147  and  _149
REMARK   65  A    between atoms: _149  and  _150
REMARK   66  A    between atoms: _149  and  _152
REMARK   67  A    between atoms: _155  and  _157
REMARK   68  A    between atoms: _157  and  _158
REMARK   69  A    between atoms: _157  and  _160
REMARK   70  A    between atoms: _160  and  _161
REMARK   71  A    between atoms: _163  and  _165
REMARK   72  A    between atoms: _165  and  _166
REMARK   73  A    between atoms: _168  and  _170
REMARK   74  A    between atoms: _170  and  _171
REMARK   75  A    between atoms: _170  and  _173
REMARK   76  A    between atoms: _173  and  _174
REMARK   77  A    between atoms: _179  and  _181
REMARK   78  A    between atoms: _181  and  _182
REMARK   79  A    between atoms: _181  and  _184
REMARK   80  A    between atoms: _184  and  _185
REMARK   81  A    between atoms: _190  and  _191
REMARK   82  A    between atoms: _193  and  _195
REMARK   83  A    between atoms: _195  and  _196
REMARK   84  A    between atoms: _195  and  _198
REMARK   85  A    between atoms: _200  and  _202
REMARK   86  A    between atoms: _202  and  _203
REMARK   87  A    between atoms: _202  and  _205
REMARK   88  A    between atoms: _205  and  _206
REMARK   89  A    between atoms: _209  and  _211
REMARK   90  A    between atoms: _211  and  _212
REMARK   91  A    between atoms: _211  and  _214
REMARK   92  A    between atoms: _214  and  _215
REMARK   93  A    between atoms: _218  and  _220
REMARK   94  A    between atoms: _220  and  _221
REMARK   95  A    between atoms: _220  and  _223
REMARK   96  A    between atoms: _223  and  _224
REMARK   97  A    between atoms: _224  and  _225
REMARK   98  A    between atoms: _225  and  _226
REMARK   99  A    between atoms: _226  and  _227
REMARK  100  A    between atoms: _231  and  _233
REMARK  101  A    between atoms: _233  and  _234
REMARK  102  A    between atoms: _233  and  _236
REMARK  103  A    between atoms: _236  and  _237
REMARK  104  A    between atoms: _237  and  _238
REMARK  105  A    between atoms: _238  and  _239
REMARK  106  A    between atoms: _239  and  _240
REMARK  107  A    between atoms: _244  and  _246
REMARK  108  A    between atoms: _246  and  _247
REMARK  109  A    between atoms: _246  and  _249
REMARK  110  A    between atoms: _249  and  _250
REMARK  111  A    between atoms: _250  and  _251
REMARK  112  A    between atoms: _251  and  _252
REMARK  113  A    between atoms: _261  and  _263
REMARK  114  A    between atoms: _263  and  _264
REMARK  115  A    between atoms: _263  and  _266
REMARK  116  A    between atoms: _266  and  _267
REMARK  117  A    between atoms: _270  and  _272
REMARK  118  A    between atoms: _272  and  _273
REMARK  119  A    between atoms: _276  and  _278
REMARK  120  A    between atoms: _278  and  _279
REMARK  121  A    between atoms: _278  and  _281
REMARK  122  A    between atoms: _281  and  _282
REMARK  123  A    between atoms: _282  and  _283
REMARK  124  A    between atoms: _288  and  _290
REMARK  125  A    between atoms: _290  and  _291
REMARK  126  A    between atoms: _290  and  _293
REMARK  127  A    between atoms: _293  and  _294
REMARK  128  A    between atoms: _294  and  _295
REMARK  129  A    between atoms: _298  and  _300
REMARK  130  A    between atoms: _300  and  _301
REMARK  131  A    between atoms: _303  and  _305
REMARK  132  A    between atoms: _305  and  _306
REMARK  133  A    between atoms: _305  and  _308
REMARK  134  A    between atoms: _310  and  _312
REMARK  135  A    between atoms: _312  and  _313
REMARK  136  A    between atoms: _312  and  _315
REMARK  137  A    between atoms: _315  and  _316
REMARK  138  A    between atoms: _319  and  _321
REMARK  139  A    between atoms: _321  and  _322
REMARK  140  A    between atoms: _321  and  _324
REMARK  141  A    between atoms: _327  and  _329
REMARK  142  A    between atoms: _329  and  _330
REMARK  143  A    between atoms: _333  and  _335
REMARK  144  A    between atoms: _335  and  _336
REMARK  145  A    between atoms: _335  and  _338
REMARK  146  A    between atoms: _338  and  _339
REMARK  147  A    between atoms: _341  and  _343
REMARK  148  A    between atoms: _343  and  _344
REMARK  149  A    between atoms: _343  and  _346
REMARK  150  A    between atoms: _346  and  _347
REMARK  151  A    between atoms: _350  and  _352
REMARK  152  A    between atoms: _352  and  _353
REMARK  153  A    between atoms: _352  and  _355
REMARK  154  A    between atoms: _355  and  _356
REMARK  155  A    between atoms: _361  and  _363
REMARK  156  A    between atoms: _363  and  _364
REMARK  157  A    between atoms: _363  and  _366
REMARK  158  A    between atoms: _366  and  _367
REMARK  159  A    between atoms: _367  and  _368
REMARK  160  A    between atoms: _368  and  _369
REMARK  161  A    between atoms: _378  and  _380
REMARK  162  A    between atoms: _380  and  _381
REMARK  163  A    between atoms: _383  and  _385
REMARK  164  A    between atoms: _385  and  _386
REMARK  165  A    between atoms: _385  and  _388
REMARK  166  A    between atoms: _391  and  _393
REMARK  167  A    between atoms: _393  and  _394
REMARK  168  A    between atoms: _393  and  _396
REMARK  169  A    between atoms: _396  and  _397
REMARK  170  A    between atoms: _400  and  _402
REMARK  171  A    between atoms: _402  and  _403
REMARK  172  A    between atoms: _402  and  _405
REMARK  173  A    between atoms: _405  and  _406
REMARK  174  A    between atoms: _406  and  _407
REMARK  175  A    between atoms: _407  and  _408
REMARK  176  A    between atoms: _408  and  _409
REMARK  177  A    between atoms: _413  and  _415
REMARK  178  A    between atoms: _415  and  _416
REMARK  179  A    between atoms: _415  and  _418
REMARK  180  A    between atoms: _418  and  _419
REMARK  181  A    between atoms: _419  and  _420
REMARK  182  A    between atoms: _420  and  _421
REMARK  183  A    between atoms: _421  and  _422
REMARK  184  A    between atoms: _426  and  _428
REMARK  185  A    between atoms: _428  and  _429
REMARK  186  A    between atoms: _428  and  _431
REMARK  187  A    between atoms: _431  and  _432
REMARK  188  A    between atoms: _437  and  _439
REMARK  189  A    between atoms: _439  and  _440
REMARK  190  A    between atoms: _439  and  _442
REMARK  191  A    between atoms: _442  and  _443
REMARK  192  A    between atoms: _448  and  _450
REMARK  193  A    between atoms: _450  and  _451
REMARK  194  A    between atoms: _454  and  _456
REMARK  195  A    between atoms: _456  and  _457
REMARK  196  A    between atoms: _456  and  _459
REMARK  197  A    between atoms: _459  and  _460
REMARK  198  A    between atoms: _465  and  _467
REMARK  199  A    between atoms: _467  and  _468
REMARK  200  A    between atoms: _471  and  _473
REMARK  201  A    between atoms: _473  and  _474
REMARK  202  A    between atoms: _477  and  _479
REMARK  203  A    between atoms: _479  and  _480
REMARK  204  A    between atoms: _479  and  _482
REMARK  205  A    between atoms: _482  and  _483
REMARK  206  A    between atoms: _488  and  _490
REMARK  207  A    between atoms: _490  and  _491
REMARK  208  A    between atoms: _490  and  _493
REMARK  209  A    between atoms: _493  and  _494
REMARK  210  A    between atoms: _497  and  _499
REMARK  211  A    between atoms: _499  and  _500
REMARK  212  A    between atoms: _502  and  _504
REMARK  213  A    between atoms: _504  and  _505
REMARK  214  A    between atoms: _504  and  _507
REMARK  215  A    between atoms: _507  and  _508
REMARK  216  A    between atoms: _508  and  _509
REMARK  217  A    between atoms: _512  and  _514
REMARK  218  A    between atoms: _514  and  _515
REMARK  219  A    between atoms: _514  and  _517
REMARK  220  A    between atoms: _517  and  _518
REMARK  221  A    between atoms: _521  and  _523
REMARK  222  A    between atoms: _523  and  _524
REMARK  223  A    between atoms: _523  and  _526
REMARK  224  A    between atoms: _526  and  _527
REMARK  225  A    between atoms: _529  and  _531
REMARK  226  A    between atoms: _531  and  _532
REMARK  227  A    between atoms: _531  and  _534
REMARK  228  A    between atoms: _534  and  _535
REMARK  229  A    between atoms: _538  and  _540
REMARK  230  A    between atoms: _540  and  _541
REMARK  231  A    between atoms: _540  and  _543
REMARK  232  A    between atoms: _543  and  _544
REMARK  233  A    between atoms: _544  and  _545
REMARK  234  A    between atoms: _547  and  _549
REMARK  235  A    between atoms: _549  and  _550
REMARK  236  A    between atoms: _553  and  _555
REMARK  237  A    between atoms: _555  and  _556
REMARK  238  A    between atoms: _559  and  _561
REMARK  239  A    between atoms: _561  and  _562
REMARK  240  A    between atoms: _561  and  _564
REMARK  241  A    between atoms: _564  and  _565
REMARK  242  A    between atoms: _568  and  _570
REMARK  243  A    between atoms: _570  and  _571
REMARK  244  A    between atoms: _574  and  _576
REMARK  245  A    between atoms: _576  and  _577
REMARK  246  A    between atoms: _580  and  _582
REMARK  247  A    between atoms: _582  and  _583
REMARK  248  A    between atoms: _585  and  _587
REMARK  249  A    between atoms: _587  and  _588
REMARK  250  A    between atoms: _587  and  _590
REMARK  251  A    between atoms: _590  and  _591
REMARK                            x       y       z     vdW  Elec       q    Type
REMARK                         _______ _______ _______ _____ _____    ______ ____
ROOT
ATOM      1  C   LYS A   1      18.631  10.361  19.944  0.00  0.00    +0.238 C 
ATOM      2  O   LYS A   1      17.559   9.826  19.720  0.00  0.00    -0.274 OA
ATOM      3  N   ASN A   2      19.712  10.138  19.204  0.00  0.00    -0.298 N 
ATOM      4  H   ASN A   2      20.632  10.499  19.529  0.00  0.00    +0.150 HD
ENDROOT
BRANCH   1   5
ATOM      5  CA  LYS A   1      18.786  11.320  21.122  0.00  0.00    +0.145 C 
BRANCH   5   6
ATOM      6  N   LYS A   1      19.691  10.746  22.106  0.00  0.00    -0.238 NA
ATOM      7  H   LYS A   1      20.715  10.832  21.943  0.00  0.00    +0.142 HD
ENDBRANCH   5   6
BRANCH   5   8
ATOM      8  CB  LYS A   1      19.324  12.661  20.627  0.00  0.00    +0.026 C 
BRANCH   8   9
ATOM      9  CG  LYS A   1      18.627  13.238  19.424  0.00  0.00    -0.000 C 
BRANCH   9  10
ATOM     10  CD  LYS A   1      19.420  14.403  18.859  0.00  0.00    -0.024 C 
BRANCH  10  11
ATOM     11  CE  LYS A   1      18.719  14.995  17.641  0.00  0.00    -0.086 C 
BRANCH  11  12
ATOM     12  NZ  LYS A   1      17.420  15.615  18.002  0.00  0.00    +0.380 N 
ATOM     13  HZ1 LYS A   1      17.581  16.378  18.690  0.00  0.00    -0.089 HD
ATOM     14  HZ2 LYS A   1      16.798  14.894  18.420  0.00  0.00    -0.089 HD
ATOM     15  HZ3 LYS A   1      16.974  16.006  17.147  0.00  0.00    -0.089 HD
ENDBRANCH  11  12
ENDBRANCH  10  11
ENDBRANCH   9  10
ENDBRANCH   8   9
ENDBRANCH   5   8
ENDBRANCH   1   5
BRANCH   3  16
ATOM     16  CA  ASN A   2      19.642   9.397  17.941  0.00  0.00    +0.146 C 
BRANCH  16  17
ATOM     17  C   ASN A   2      19.471   7.886  18.068  0.00  0.00    +0.227 C 
ATOM     18  O   ASN A   2      18.908   7.246  17.163  0.00  0.00    -0.286 OA
ENDBRANCH  16  17
BRANCH  16  19
ATOM     19  CB  ASN A   2      20.844   9.733  17.056  0.00  0.00    +0.112 C 
BRANCH  19  20
ATOM     20  CG  ASN A   2      20.824  11.176  16.566  0.00  0.00    +0.222 C 
ATOM     21  OD1 ASN A   2      19.782  11.829  16.570  0.00  0.00    -0.275 OA
ATOM     22  ND2 ASN A   2      21.980  11.676  16.139  0.00  0.00    -0.329 N 
ATOM     23 HD21 ASN A   2      22.838  11.088  16.153  0.00  0.00    +0.145 HD
ATOM     24 HD22 ASN A   2      22.026  12.655  15.791  0.00  0.00    +0.145 HD
ENDBRANCH  19  20
ENDBRANCH  16  19
ENDBRANCH   3  16
TORSDOF 11
REMARK  Name = ../refined-set-2016/3cda/3cda_pocket.pdb
REMARK  251 active torsions:
REMARK  status: ('A' for Active; 'I' for Inactive)
REMARK    1  A    between atoms: _1  and  _3
REMARK    2  A    between atoms: _3  and  _4
REMARK    3  A    between atoms: _3  and  _6
REMARK    4  A    between atoms: _6  and  _7
REMARK    5  A    between atoms: _12  and  _13
REMARK    6  A    between atoms: _15  and  _17
REMARK    7  A    between atoms: _17  and  _18
REMARK    8  A    between atoms: _17  and  _20
REMARK    9  A    between atoms: _20  and  _21
REMARK   10  A    between atoms: _21  and  _22
REMARK   11  A    between atoms: _25  and  _27
REMARK   12  A    between atoms: _27  and  _28
REMARK   13  A    between atoms: _27  and  _30
REMARK   14  A    between atoms: _30  and  _31
REMARK   15  A    between atoms: _34  and  _36
REMARK   16  A    between atoms: _36  and  _37
REMARK   17  A    between atoms: _36  and  _39
REMARK   18  A    between atoms: _39  and  _40
REMARK   19  A    between atoms: _40  and  _41
REMARK   20  A    between atoms: _41  and  _42
REMARK   21  A    between atoms: _51  and  _53
REMARK   22  A    between atoms: _53  and  _54
REMARK   23  A    between atoms: _57  and  _58
REMARK   24  A    between atoms: _63  and  _65
REMARK   25  A    between atoms: _65  and  _66
REMARK   26  A    between atoms: _65  and  _68
REMARK   27  A    between atoms: _68  and  _69
REMARK   28  A    between atoms: _69  and  _70
REMARK   29  A    between atoms: _72  and  _74
REMARK   30  A    between atoms: _74  and  _75
REMARK   31  A    between atoms: _74  and  _77
REMARK   32  A    between atoms: _77  and  _78
REMARK   33  A    between atoms: _78  and  _79
REMARK   34  A    between atoms: _81  and  _83
REMARK   35  A    between atoms: _83  and  _84
REMARK   36  A    between atoms: _83  and  _86
REMARK   37  A    between atoms: _86  and  _87
REMARK   38  A    between atoms: _92  and  _94
REMARK   39  A    between atoms: _94  and  _95
REMARK   40  A    between atoms: _94  and  _97
REMARK   41  A    between atoms: _97  and  _98
REMARK   42  A    between atoms: _101  and  _103
REMARK   43  A    between atoms: _103  and  _104
REMARK   44  A    between atoms: _103  and  _106
REMARK   45  A    between atoms: _106  and  _107
REMARK   46  A    between atoms: _109  and  _111
REMARK   47  A    between atoms: _111  and  _112
REMARK   48  A    between atoms: _111  and  _114
REMARK   49  A    between atoms: _114  and  _115
REMARK   50  A    between atoms: _115  and  _116
REMARK   51  A    between atoms: _116  and  _117
REMARK   52  A    between atoms: _117  and  _118
REMARK   53  A    between atoms: _122  and  _124
REMARK   54  A    between atoms: _124  and  _125
REMARK   55  A    between atoms: _124  and  _127
REMARK   56  A    between atoms: _127  and  _128
REMARK   57  A    between atoms: _131  and  _133
REMARK   58  A    between atoms: _133  and  _134
REMARK   59  A    between atoms: _133  and  _136
REMARK   60  A    between atoms: _136  and  _137
REMARK   61  A    between atoms: _137  and  _138
REMARK   62  A    between atoms: _141  and  _143
REMARK   63  A    between atoms: _143  and  _144
REMARK   64  A    between atoms: _147  and  _149
REMARK   65  A    between atoms: _149  and  _150
REMARK   66  A    between atoms: _149  and  _152
REMARK   67  A    between atoms: _155  and  _157
REMARK   68  A    between atoms: _157  and  _158
REMARK   69  A    between atoms: _157  and  _160
REMARK   70  A    between atoms: _160  and  _161
REMARK   71  A    between atoms: _163  and  _165
REMARK   72  A    between atoms: _165  and  _166
REMARK   73  A    between atoms: _168  and  _170
REMARK   74  A    between atoms: _170  and  _171
REMARK   75  A    between atoms: _170  and  _173
REMARK   76  A    between atoms: _173  and  _174
REMARK   77  A    between atoms: _179  and  _181
REMARK   78  A    between atoms: _181  and  _182
REMARK   79  A    between atoms: _181  and  _184
REMARK   80  A    between atoms: _184  and  _185
REMARK   81  A    between atoms: _190  and  _191
REMARK   82  A    between atoms: _193  and  _195
REMARK   83  A    between atoms: _195  and  _196
REMARK   84  A    between atoms: _195  and  _198
REMARK   85  A    between atoms: _200  and  _202
REMARK   86  A    between atoms: _202  and  _203
REMARK   87  A    between atoms: _202  and  _205
REMARK   88  A    between atoms: _205  and  _206
REMARK   89  A    between atoms: _209  and  _211
REMARK   90  A    between atoms: _211  and  _212
REMARK   91  A    between atoms: _211  and  _214
REMARK   92  A    between atoms: _214  and  _215
REMARK   93  A    between atoms: _218  and  _220
REMARK   94  A    between atoms: _220  and  _221
REMARK   95  A    between atoms: _220  and  _223
REMARK   96  A    between atoms: _223  and  _224
REMARK   97  A    between atoms: _224  and  _225
REMARK   98  A    between atoms: _225  and  _226
REMARK   99  A    between atoms: _226  and  _227
REMARK  100  A    between atoms: _231  and  _233
REMARK  101  A    between atoms: _233  and  _234
REMARK  102  A    between atoms: _233  and  _236
REMARK  103  A    between atoms: _236  and  _237
REMARK  104  A    between atoms: _237  and  _238
REMARK  105  A    between atoms: _238  and  _239
REMARK  106  A    between atoms: _239  and  _240
REMARK  107  A    between atoms: _244  and  _246
REMARK  108  A    between atoms: _246  and  _247
REMARK  109  A    between atoms: _246  and  _249
REMARK  110  A    between atoms: _249  and  _250
REMARK  111  A    between atoms: _250  and  _251
REMARK  112  A    between atoms: _251  and  _252
REMARK  113  A    between atoms: _261  and  _263
REMARK  114  A    between atoms: _263  and  _264
REMARK  115  A    between atoms: _263  and  _266
REMARK  116  A    between atoms: _266  and  _267
REMARK  117  A    between atoms: _270  and  _272
REMARK  118  A    between atoms: _272  and  _273
REMARK  119  A    between atoms: _276  and  _278
REMARK  120  A    between atoms: _278  and  _279
REMARK  121  A    between atoms: _278  and  _281
REMARK  122  A    between atoms: _281  and  _282
REMARK  123  A    between atoms: _282  and  _283
REMARK  124  A    between atoms: _288  and  _290
REMARK  125  A    between atoms: _290  and  _291
REMARK  126  A    between atoms: _290  and  _293
REMARK  127  A    between atoms: _293  and  _294
REMARK  128  A    between atoms: _294  and  _295
REMARK  129  A    between atoms: _298  and  _300
REMARK  130  A    between atoms: _300  and  _301
REMARK  131  A    between atoms: _303  and  _305
REMARK  132  A    between atoms: _305  and  _306
REMARK  133  A    between atoms: _305  and  _308
REMARK  134  A    between atoms: _310  and  _312
REMARK  135  A    between atoms: _312  and  _313
REMARK  136  A    between atoms: _312  and  _315
REMARK  137  A    between atoms: _315  and  _316
REMARK  138  A    between atoms: _319  and  _321
REMARK  139  A    between atoms: _321  and  _322
REMARK  140  A    between atoms: _321  and  _324
REMARK  141  A    between atoms: _327  and  _329
REMARK  142  A    between atoms: _329  and  _330
REMARK  143  A    between atoms: _333  and  _335
REMARK  144  A    between atoms: _335  and  _336
REMARK  145  A    between atoms: _335  and  _338
REMARK  146  A    between atoms: _338  and  _339
REMARK  147  A    between atoms: _341  and  _343
REMARK  148  A    between atoms: _343  and  _344
REMARK  149  A    between atoms: _343  and  _346
REMARK  150  A    between atoms: _346  and  _347
REMARK  151  A    between atoms: _350  and  _352
REMARK  152  A    between atoms: _352  and  _353
REMARK  153  A    between atoms: _352  and  _355
REMARK  154  A    between atoms: _355  and  _356
REMARK  155  A    between atoms: _361  and  _363
REMARK  156  A    between atoms: _363  and  _364
REMARK  157  A    between atoms: _363  and  _366
REMARK  158  A    between atoms: _366  and  _367
REMARK  159  A    between atoms: _367  and  _368
REMARK  160  A    between atoms: _368  and  _369
REMARK  161  A    between atoms: _378  and  _380
REMARK  162  A    between atoms: _380  and  _381
REMARK  163  A    between atoms: _383  and  _385
REMARK  164  A    between atoms: _385  and  _386
REMARK  165  A    between atoms: _385  and  _388
REMARK  166  A    between atoms: _391  and  _393
REMARK  167  A    between atoms: _393  and  _394
REMARK  168  A    between atoms: _393  and  _396
REMARK  169  A    between atoms: _396  and  _397
REMARK  170  A    between atoms: _400  and  _402
REMARK  171  A    between atoms: _402  and  _403
REMARK  172  A    between atoms: _402  and  _405
REMARK  173  A    between atoms: _405  and  _406
REMARK  174  A    between atoms: _406  and  _407
REMARK  175  A    between atoms: _407  and  _408
REMARK  176  A    between atoms: _408  and  _409
REMARK  177  A    between atoms: _413  and  _415
REMARK  178  A    between atoms: _415  and  _416
REMARK  179  A    between atoms: _415  and  _418
REMARK  180  A    between atoms: _418  and  _419
REMARK  181  A    between atoms: _419  and  _420
REMARK  182  A    between atoms: _420  and  _421
REMARK  183  A    between atoms: _421  and  _422
REMARK  184  A    between atoms: _426  and  _428
REMARK  185  A    between atoms: _428  and  _429
REMARK  186  A    between atoms: _428  and  _431
REMARK  187  A    between atoms: _431  and  _432
REMARK  188  A    between atoms: _437  and  _439
REMARK  189  A    between atoms: _439  and  _440
REMARK  190  A    between atoms: _439  and  _442
REMARK  191  A    between atoms: _442  and  _443
REMARK  192  A    between atoms: _448  and  _450
REMARK  193  A    between atoms: _450  and  _451
REMARK  194  A    between atoms: _454  and  _456
REMARK  195  A    between atoms: _456  and  _457
REMARK  196  A    between atoms: _456  and  _459
REMARK  197  A    between atoms: _459  and  _460
REMARK  198  A    between atoms: _465  and  _467
REMARK  199  A    between atoms: _467  and  _468
REMARK  200  A    between atoms: _471  and  _473
REMARK  201  A    between atoms: _473  and  _474
REMARK  202  A    between atoms: _477  and  _479
REMARK  203  A    between atoms: _479  and  _480
REMARK  204  A    between atoms: _479  and  _482
REMARK  205  A    between atoms: _482  and  _483
REMARK  206  A    between atoms: _488  and  _490
REMARK  207  A    between atoms: _490  and  _491
REMARK  208  A    between atoms: _490  and  _493
REMARK  209  A    between atoms: _493  and  _494
REMARK  210  A    between atoms: _497  and  _499
REMARK  211  A    between atoms: _499  and  _500
REMARK  212  A    between atoms: _502  and  _504
REMARK  213  A    between atoms: _504  and  _505
REMARK  214  A    between atoms: _504  and  _507
REMARK  215  A    between atoms: _507  and  _508
REMARK  216  A    between atoms: _508  and  _509
REMARK  217  A    between atoms: _512  and  _514
REMARK  218  A    between atoms: _514  and  _515
REMARK  219  A    between atoms: _514  and  _517
REMARK  220  A    between atoms: _517  and  _518
REMARK  221  A    between atoms: _521  and  _523
REMARK  222  A    between atoms: _523  and  _524
REMARK  223  A    between atoms: _523  and  _526
REMARK  224  A    between atoms: _526  and  _527
REMARK  225  A    between atoms: _529  and  _531
REMARK  226  A    between atoms: _531  and  _532
REMARK  227  A    between atoms: _531  and  _534
REMARK  228  A    between atoms: _534  and  _535
REMARK  229  A    between atoms: _538  and  _540
REMARK  230  A    between atoms: _540  and  _541
REMARK  231  A    between atoms: _540  and  _543
REMARK  232  A    between atoms: _543  and  _544
REMARK  233  A    between atoms: _544  and  _545
REMARK  234  A    between atoms: _547  and  _549
REMARK  235  A    between atoms: _549  and  _550
REMARK  236  A    between atoms: _553  and  _555
REMARK  237  A    between atoms: _555  and  _556
REMARK  238  A    between atoms: _559  and  _561
REMARK  239  A    between atoms: _561  and  _562
REMARK  240  A    between atoms: _561  and  _564
REMARK  241  A    between atoms: _564  and  _565
REMARK  242  A    between atoms: _568  and  _570
REMARK  243  A    between atoms: _570  and  _571
REMARK  244  A    between atoms: _574  and  _576
REMARK  245  A    between atoms: _576  and  _577
REMARK  246  A    between atoms: _580  and  _582
REMARK  247  A    between atoms: _582  and  _583
REMARK  248  A    between atoms: _585  and  _587
REMARK  249  A    between atoms: _587  and  _588
REMARK  250  A    between atoms: _587  and  _590
REMARK  251  A    between atoms: _590  and  _591
REMARK                            x       y       z     vdW  Elec       q    Type
REMARK                         _______ _______ _______ _____ _____    ______ ____
ROOT
ATOM      1  C   HIS A   3      18.805  15.446   9.166  0.00  0.00    +0.241 C 
ATOM      2  N   ALA A   4      19.234  14.204   8.956  0.00  0.00    -0.297 N 
ATOM      3  H   ALA A   4      19.273  13.543   9.758  0.00  0.00    +0.150 HD
ATOM      4  O   HIS A   3      18.786  16.313   8.292  0.00  0.00    -0.273 OA
ENDROOT
BRANCH   2   5
ATOM      5  CA  ALA A   4      19.651  13.740   7.639  0.00  0.00    +0.149 C 
ATOM      6  CB  ALA A   4      19.678  12.216   7.603  0.00  0.00    +0.031 C 
BRANCH   5   7
ATOM      7  C   ALA A   4      18.729  14.264   6.547  0.00  0.00    +0.241 C 
ATOM      8  N   ALA A   5      17.424  14.236   6.806  0.00  0.00    -0.297 N 
ATOM      9  H   ALA A   5      17.103  13.934   7.748  0.00  0.00    +0.150 HD
ATOM     10  O   ALA A   4      19.192  14.714   5.508  0.00  0.00    -0.273 OA
BRANCH   8  11
ATOM     11  CA  ALA A   5      16.434  14.614   5.813  0.00  0.00    +0.149 C 
ATOM     12  CB  ALA A   5      15.035  14.369   6.347  0.00  0.00    +0.031 C 
BRANCH  11  13
ATOM     13  C   ALA A   5      16.582  16.051   5.329  0.00  0.00    +0.241 C 
ATOM     14  N   ASN A   6      16.934  16.970   6.218  0.00  0.00    -0.297 N 
ATOM     15  H   ASN A   6      17.002  16.708   7.222  0.00  0.00    +0.150 HD
ATOM     16  O   ALA A   5      16.373  16.321   4.156  0.00  0.00    -0.273 OA
BRANCH  14  17
ATOM     17  CA  ASN A   6      17.229  18.349   5.814  0.00  0.00    +0.158 C 
BRANCH  17  18
ATOM     18  C   ASN A   6      18.258  18.444   4.697  0.00  0.00    +0.241 C 
ATOM     19  N   ILE A   7      19.372  17.732   4.865  0.00  0.00    -0.298 N 
ATOM     20  H   ILE A   7      19.470  17.144   5.717  0.00  0.00    +0.150 HD
ATOM     21  O   ASN A   6      18.047  19.159   3.712  0.00  0.00    -0.273 OA
BRANCH  19  22
ATOM     22  CA  ILE A   7      20.460  17.752   3.889  0.00  0.00    +0.137 C 
BRANCH  22  23
ATOM     23  C   ILE A   7      20.078  16.994   2.623  0.00  0.00    +0.227 C 
ATOM     24  O   ILE A   7      20.298  17.478   1.508  0.00  0.00    -0.286 OA
ENDBRANCH  22  23
BRANCH  22  25
ATOM     25  CB  ILE A   7      21.761  17.162   4.500  0.00  0.00    +0.026 C 
ATOM     26  CG2 ILE A   7      22.744  16.752   3.390  0.00  0.00    +0.002 C 
BRANCH  25  27
ATOM     27  CG1 ILE A   7      22.436  18.176   5.432  0.00  0.00    +0.002 C 
ATOM     28  CD1 ILE A   7      21.718  18.414   6.740  0.00  0.00    +0.000 C 
ENDBRANCH  25  27
ENDBRANCH  22  25
ENDBRANCH  19  22
ENDBRANCH  17  18
BRANCH  17  29
ATOM     29  CB  ASN A   6      17.724  19.175   7.010  0.00  0.00    +0.114 C 
BRANCH  29  30
ATOM     30  CG  ASN A   6      16.592  19.740   7.832  0.00  0.00    +0.222 C 
ATOM     31  ND2 ASN A   6      16.860  20.043   9.097  0.00  0.00    -0.329 N 
ATOM     32 HD21 ASN A   6      16.119  20.449   9.703  0.00  0.00    +0.145 HD
ATOM     33 HD22 ASN A   6      17.811  19.874   9.482  0.00  0.00    +0.145 HD
ATOM     34  OD1 ASN A   6      15.495  19.917   7.329  0.00  0.00    -0.275 OA
ENDBRANCH  29  30
ENDBRANCH  17  29
ENDBRANCH  14  17
ENDBRANCH  11  13
ENDBRANCH   8  11
ENDBRANCH   5   7
ENDBRANCH   2   5
BRANCH   1  35
ATOM     35  CA  HIS A   3      18.294  15.764  10.560  0.00  0.00    +0.155 C 
BRANCH  35  38
ATOM     36  C   ALA A   2      18.420  14.861  12.825  0.00  0.00    +0.241 C 
ATOM     37  O   ALA A   2      17.254  15.186  13.056  0.00  0.00    -0.273 OA
ATOM     38  N   HIS A   3      19.021  15.115  11.663  0.00  0.00    -0.297 N 
ATOM     39  H   HIS A   3      20.019  14.851  11.534  0.00  0.00    +0.150 HD
BRANCH  36  40
ATOM     40  CA  ALA A   2      19.251  14.174  13.912  0.00  0.00    +0.149 C 
ATOM     41  CB  ALA A   2      20.387  15.087  14.362  0.00  0.00    +0.031 C 
BRANCH  40  44
ATOM     42  C   ASN A   1      19.063  11.773  13.551  0.00  0.00    +0.239 C 
ATOM     43  O   ASN A   1      17.875  11.763  13.897  0.00  0.00    -0.274 OA
ATOM     44  N   ALA A   2      19.780  12.883  13.477  0.00  0.00    -0.297 N 
ATOM     45  H   ALA A   2      20.747  12.835  13.098  0.00  0.00    +0.150 HD
BRANCH  42  46
ATOM     46  CA  ASN A   1      19.774  10.487  13.162  0.00  0.00    +0.154 C 
BRANCH  46  47
ATOM     47  N   ASN A   1      18.972   9.362  13.591  0.00  0.00    -0.238 NA
ATOM     48  H   ASN A   1      17.953   9.509  13.741  0.00  0.00    +0.142 HD
ENDBRANCH  46  47
BRANCH  46  49
ATOM     49  CB  ASN A   1      19.952  10.430  11.650  0.00  0.00    +0.111 C 
BRANCH  49  50
ATOM     50  CG  ASN A   1      18.629  10.547  10.911  0.00  0.00    +0.221 C 
ATOM     51  OD1 ASN A   1      18.152  11.650  10.647  0.00  0.00    -0.275 OA
ATOM     52  ND2 ASN A   1      18.024   9.408  10.590  0.00  0.00    -0.329 N 
ATOM     53 HD21 ASN A   1      18.465   8.498  10.834  0.00  0.00    +0.145 HD
ATOM     54 HD22 ASN A   1      17.109   9.426  10.095  0.00  0.00    +0.145 HD
ENDBRANCH  49  50
ENDBRANCH  46  49
ENDBRANCH  42  46
ENDBRANCH  40  44
ENDBRANCH  36  40
ENDBRANCH  35  38
BRANCH  35  55
ATOM     55  CB  HIS A   3      18.230  17.279  10.745  0.00  0.00    +0.076 C 
BRANCH  55  56
ATOM     56  CG  HIS A   3      19.538  17.979  10.575  0.00  0.00    +0.082 A 
ATOM     57  CD2 HIS A   3      20.811  17.517  10.557  0.00  0.00    +0.115 A 
ATOM     58  NE2 HIS A   3      21.635  18.604  10.395  0.00  0.00    -0.221 NA
ATOM     59  CE1 HIS A   3      20.894  19.693  10.316  0.00  0.00    +0.199 A 
ATOM     60  ND1 HIS A   3      19.625  19.343  10.413  0.00  0.00    -0.227 NA
ENDBRANCH  55  56
ENDBRANCH  35  55
ENDBRANCH   1  35
TORSDOF 22
REMARK  Name = ../refined-set-2016/3cda/3cda_pocket.pdb
REMARK  251 active torsions:
REMARK  status: ('A' for Active; 'I' for Inactive)
REMARK    1  A    between atoms: _1  and  _3
REMARK    2  A    between atoms: _3  and  _4
REMARK    3  A    between atoms: _3  and  _6
REMARK    4  A    between atoms: _6  and  _7
REMARK    5  A    between atoms: _12  and  _13
REMARK    6  A    between atoms: _15  and  _17
REMARK    7  A    between atoms: _17  and  _18
REMARK    8  A    between atoms: _17  and  _20
REMARK    9  A    between atoms: _20  and  _21
REMARK   10  A    between atoms: _21  and  _22
REMARK   11  A    between atoms: _25  and  _27
REMARK   12  A    between atoms: _27  and  _28
REMARK   13  A    between atoms: _27  and  _30
REMARK   14  A    between atoms: _30  and  _31
REMARK   15  A    between atoms: _34  and  _36
REMARK   16  A    between atoms: _36  and  _37
REMARK   17  A    between atoms: _36  and  _39
REMARK   18  A    between atoms: _39  and  _40
REMARK   19  A    between atoms: _40  and  _41
REMARK   20  A    between atoms: _41  and  _42
REMARK   21  A    between atoms: _51  and  _53
REMARK   22  A    between atoms: _53  and  _54
REMARK   23  A    between atoms: _57  and  _58
REMARK   24  A    between atoms: _63  and  _65
REMARK   25  A    between atoms: _65  and  _66
REMARK   26  A    between atoms: _65  and  _68
REMARK   27  A    between atoms: _68  and  _69
REMARK   28  A    between atoms: _69  and  _70
REMARK   29  A    between atoms: _72  and  _74
REMARK   30  A    between atoms: _74  and  _75
REMARK   31  A    between atoms: _74  and  _77
REMARK   32  A    between atoms: _77  and  _78
REMARK   33  A    between atoms: _78  and  _79
REMARK   34  A    between atoms: _81  and  _83
REMARK   35  A    between atoms: _83  and  _84
REMARK   36  A    between atoms: _83  and  _86
REMARK   37  A    between atoms: _86  and  _87
REMARK   38  A    between atoms: _92  and  _94
REMARK   39  A    between atoms: _94  and  _95
REMARK   40  A    between atoms: _94  and  _97
REMARK   41  A    between atoms: _97  and  _98
REMARK   42  A    between atoms: _101  and  _103
REMARK   43  A    between atoms: _103  and  _104
REMARK   44  A    between atoms: _103  and  _106
REMARK   45  A    between atoms: _106  and  _107
REMARK   46  A    between atoms: _109  and  _111
REMARK   47  A    between atoms: _111  and  _112
REMARK   48  A    between atoms: _111  and  _114
REMARK   49  A    between atoms: _114  and  _115
REMARK   50  A    between atoms: _115  and  _116
REMARK   51  A    between atoms: _116  and  _117
REMARK   52  A    between atoms: _117  and  _118
REMARK   53  A    between atoms: _122  and  _124
REMARK   54  A    between atoms: _124  and  _125
REMARK   55  A    between atoms: _124  and  _127
REMARK   56  A    between atoms: _127  and  _128
REMARK   57  A    between atoms: _131  and  _133
REMARK   58  A    between atoms: _133  and  _134
REMARK   59  A    between atoms: _133  and  _136
REMARK   60  A    between atoms: _136  and  _137
REMARK   61  A    between atoms: _137  and  _138
REMARK   62  A    between atoms: _141  and  _143
REMARK   63  A    between atoms: _143  and  _144
REMARK   64  A    between atoms: _147  and  _149
REMARK   65  A    between atoms: _149  and  _150
REMARK   66  A    between atoms: _149  and  _152
REMARK   67  A    between atoms: _155  and  _157
REMARK   68  A    between atoms: _157  and  _158
REMARK   69  A    between atoms: _157  and  _160
REMARK   70  A    between atoms: _160  and  _161
REMARK   71  A    between atoms: _163  and  _165
REMARK   72  A    between atoms: _165  and  _166
REMARK   73  A    between atoms: _168  and  _170
REMARK   74  A    between atoms: _170  and  _171
REMARK   75  A    between atoms: _170  and  _173
REMARK   76  A    between atoms: _173  and  _174
REMARK   77  A    between atoms: _179  and  _181
REMARK   78  A    between atoms: _181  and  _182
REMARK   79  A    between atoms: _181  and  _184
REMARK   80  A    between atoms: _184  and  _185
REMARK   81  A    between atoms: _190  and  _191
REMARK   82  A    between atoms: _193  and  _195
REMARK   83  A    between atoms: _195  and  _196
REMARK   84  A    between atoms: _195  and  _198
REMARK   85  A    between atoms: _200  and  _202
REMARK   86  A    between atoms: _202  and  _203
REMARK   87  A    between atoms: _202  and  _205
REMARK   88  A    between atoms: _205  and  _206
REMARK   89  A    between atoms: _209  and  _211
REMARK   90  A    between atoms: _211  and  _212
REMARK   91  A    between atoms: _211  and  _214
REMARK   92  A    between atoms: _214  and  _215
REMARK   93  A    between atoms: _218  and  _220
REMARK   94  A    between atoms: _220  and  _221
REMARK   95  A    between atoms: _220  and  _223
REMARK   96  A    between atoms: _223  and  _224
REMARK   97  A    between atoms: _224  and  _225
REMARK   98  A    between atoms: _225  and  _226
REMARK   99  A    between atoms: _226  and  _227
REMARK  100  A    between atoms: _231  and  _233
REMARK  101  A    between atoms: _233  and  _234
REMARK  102  A    between atoms: _233  and  _236
REMARK  103  A    between atoms: _236  and  _237
REMARK  104  A    between atoms: _237  and  _238
REMARK  105  A    between atoms: _238  and  _239
REMARK  106  A    between atoms: _239  and  _240
REMARK  107  A    between atoms: _244  and  _246
REMARK  108  A    between atoms: _246  and  _247
REMARK  109  A    between atoms: _246  and  _249
REMARK  110  A    between atoms: _249  and  _250
REMARK  111  A    between atoms: _250  and  _251
REMARK  112  A    between atoms: _251  and  _252
REMARK  113  A    between atoms: _261  and  _263
REMARK  114  A    between atoms: _263  and  _264
REMARK  115  A    between atoms: _263  and  _266
REMARK  116  A    between atoms: _266  and  _267
REMARK  117  A    between atoms: _270  and  _272
REMARK  118  A    between atoms: _272  and  _273
REMARK  119  A    between atoms: _276  and  _278
REMARK  120  A    between atoms: _278  and  _279
REMARK  121  A    between atoms: _278  and  _281
REMARK  122  A    between atoms: _281  and  _282
REMARK  123  A    between atoms: _282  and  _283
REMARK  124  A    between atoms: _288  and  _290
REMARK  125  A    between atoms: _290  and  _291
REMARK  126  A    between atoms: _290  and  _293
REMARK  127  A    between atoms: _293  and  _294
REMARK  128  A    between atoms: _294  and  _295
REMARK  129  A    between atoms: _298  and  _300
REMARK  130  A    between atoms: _300  and  _301
REMARK  131  A    between atoms: _303  and  _305
REMARK  132  A    between atoms: _305  and  _306
REMARK  133  A    between atoms: _305  and  _308
REMARK  134  A    between atoms: _310  and  _312
REMARK  135  A    between atoms: _312  and  _313
REMARK  136  A    between atoms: _312  and  _315
REMARK  137  A    between atoms: _315  and  _316
REMARK  138  A    between atoms: _319  and  _321
REMARK  139  A    between atoms: _321  and  _322
REMARK  140  A    between atoms: _321  and  _324
REMARK  141  A    between atoms: _327  and  _329
REMARK  142  A    between atoms: _329  and  _330
REMARK  143  A    between atoms: _333  and  _335
REMARK  144  A    between atoms: _335  and  _336
REMARK  145  A    between atoms: _335  and  _338
REMARK  146  A    between atoms: _338  and  _339
REMARK  147  A    between atoms: _341  and  _343
REMARK  148  A    between atoms: _343  and  _344
REMARK  149  A    between atoms: _343  and  _346
REMARK  150  A    between atoms: _346  and  _347
REMARK  151  A    between atoms: _350  and  _352
REMARK  152  A    between atoms: _352  and  _353
REMARK  153  A    between atoms: _352  and  _355
REMARK  154  A    between atoms: _355  and  _356
REMARK  155  A    between atoms: _361  and  _363
REMARK  156  A    between atoms: _363  and  _364
REMARK  157  A    between atoms: _363  and  _366
REMARK  158  A    between atoms: _366  and  _367
REMARK  159  A    between atoms: _367  and  _368
REMARK  160  A    between atoms: _368  and  _369
REMARK  161  A    between atoms: _378  and  _380
REMARK  162  A    between atoms: _380  and  _381
REMARK  163  A    between atoms: _383  and  _385
REMARK  164  A    between atoms: _385  and  _386
REMARK  165  A    between atoms: _385  and  _388
REMARK  166  A    between atoms: _391  and  _393
REMARK  167  A    between atoms: _393  and  _394
REMARK  168  A    between atoms: _393  and  _396
REMARK  169  A    between atoms: _396  and  _397
REMARK  170  A    between atoms: _400  and  _402
REMARK  171  A    between atoms: _402  and  _403
REMARK  172  A    between atoms: _402  and  _405
REMARK  173  A    between atoms: _405  and  _406
REMARK  174  A    between atoms: _406  and  _407
REMARK  175  A    between atoms: _407  and  _408
REMARK  176  A    between atoms: _408  and  _409
REMARK  177  A    between atoms: _413  and  _415
REMARK  178  A    between atoms: _415  and  _416
REMARK  179  A    between atoms: _415  and  _418
REMARK  180  A    between atoms: _418  and  _419
REMARK  181  A    between atoms: _419  and  _420
REMARK  182  A    between atoms: _420  and  _421
REMARK  183  A    between atoms: _421  and  _422
REMARK  184  A    between atoms: _426  and  _428
REMARK  185  A    between atoms: _428  and  _429
REMARK  186  A    between atoms: _428  and  _431
REMARK  187  A    between atoms: _431  and  _432
REMARK  188  A    between atoms: _437  and  _439
REMARK  189  A    between atoms: _439  and  _440
REMARK  190  A    between atoms: _439  and  _442
REMARK  191  A    between atoms: _442  and  _443
REMARK  192  A    between atoms: _448  and  _450
REMARK  193  A    between atoms: _450  and  _451
REMARK  194  A    between atoms: _454  and  _456
REMARK  195  A    between atoms: _456  and  _457
REMARK  196  A    between atoms: _456  and  _459
REMARK  197  A    between atoms: _459  and  _460
REMARK  198  A    between atoms: _465  and  _467
REMARK  199  A    between atoms: _467  and  _468
REMARK  200  A    between atoms: _471  and  _473
REMARK  201  A    between atoms: _473  and  _474
REMARK  202  A    between atoms: _477  and  _479
REMARK  203  A    between atoms: _479  and  _480
REMARK  204  A    between atoms: _479  and  _482
REMARK  205  A    between atoms: _482  and  _483
REMARK  206  A    between atoms: _488  and  _490
REMARK  207  A    between atoms: _490  and  _491
REMARK  208  A    between atoms: _490  and  _493
REMARK  209  A    between atoms: _493  and  _494
REMARK  210  A    between atoms: _497  and  _499
REMARK  211  A    between atoms: _499  and  _500
REMARK  212  A    between atoms: _502  and  _504
REMARK  213  A    between atoms: _504  and  _505
REMARK  214  A    between atoms: _504  and  _507
REMARK  215  A    between atoms: _507  and  _508
REMARK  216  A    between atoms: _508  and  _509
REMARK  217  A    between atoms: _512  and  _514
REMARK  218  A    between atoms: _514  and  _515
REMARK  219  A    between atoms: _514  and  _517
REMARK  220  A    between atoms: _517  and  _518
REMARK  221  A    between atoms: _521  and  _523
REMARK  222  A    between atoms: _523  and  _524
REMARK  223  A    between atoms: _523  and  _526
REMARK  224  A    between atoms: _526  and  _527
REMARK  225  A    between atoms: _529  and  _531
REMARK  226  A    between atoms: _531  and  _532
REMARK  227  A    between atoms: _531  and  _534
REMARK  228  A    between atoms: _534  and  _535
REMARK  229  A    between atoms: _538  and  _540
REMARK  230  A    between atoms: _540  and  _541
REMARK  231  A    between atoms: _540  and  _543
REMARK  232  A    between atoms: _543  and  _544
REMARK  233  A    between atoms: _544  and  _545
REMARK  234  A    between atoms: _547  and  _549
REMARK  235  A    between atoms: _549  and  _550
REMARK  236  A    between atoms: _553  and  _555
REMARK  237  A    between atoms: _555  and  _556
REMARK  238  A    between atoms: _559  and  _561
REMARK  239  A    between atoms: _561  and  _562
REMARK  240  A    between atoms: _561  and  _564
REMARK  241  A    between atoms: _564  and  _565
REMARK  242  A    between atoms: _568  and  _570
REMARK  243  A    between atoms: _570  and  _571
REMARK  244  A    between atoms: _574  and  _576
REMARK  245  A    between atoms: _576  and  _577
REMARK  246  A    between atoms: _580  and  _582
REMARK  247  A    between atoms: _582  and  _583
REMARK  248  A    between atoms: _585  and  _587
REMARK  249  A    between atoms: _587  and  _588
REMARK  250  A    between atoms: _587  and  _590
REMARK  251  A    between atoms: _590  and  _591
REMARK                            x       y       z     vdW  Elec       q    Type
REMARK                         _______ _______ _______ _____ _____    ______ ____
ROOT
ATOM      1  C   MET A   6      25.202  18.578  18.434  0.00  0.00    +0.241 C 
ATOM      2  O   MET A   6      24.956  18.629  19.630  0.00  0.00    -0.273 OA
ATOM      3  N   ALA A   7      26.226  19.218  17.878  0.00  0.00    -0.297 N 
ATOM      4  H   ALA A   7      26.424  19.074  16.867  0.00  0.00    +0.150 HD
ENDROOT
BRANCH   3   5
ATOM      5  CA  ALA A   7      27.078  20.116  18.647  0.00  0.00    +0.149 C 
ATOM      6  CB  ALA A   7      28.200  20.663  17.776  0.00  0.00    +0.031 C 
BRANCH   5   7
ATOM      7  C   ALA A   7      26.265  21.257  19.234  0.00  0.00    +0.241 C 
ATOM      8  O   ALA A   7      26.463  21.626  20.383  0.00  0.00    -0.273 OA
ATOM      9  N   ALA A   8      25.343  21.797  18.439  0.00  0.00    -0.297 N 
ATOM     10  H   ALA A   8      25.231  21.421  17.476  0.00  0.00    +0.150 HD
BRANCH   9  11
ATOM     11  CA  ALA A   8      24.482  22.897  18.868  0.00  0.00    +0.149 C 
ATOM     12  CB  ALA A   8      23.738  23.479  17.669  0.00  0.00    +0.031 C 
BRANCH  11  13
ATOM     13  C   ALA A   8      23.494  22.472  19.950  0.00  0.00    +0.241 C 
ATOM     14  O   ALA A   8      23.182  23.247  20.855  0.00  0.00    -0.273 OA
ATOM     15  N   LEU A   9      22.997  21.241  19.852  0.00  0.00    -0.297 N 
ATOM     16  H   LEU A   9      23.254  20.657  19.031  0.00  0.00    +0.150 HD
BRANCH  15  17
ATOM     17  CA  LEU A   9      22.101  20.687  20.865  0.00  0.00    +0.149 C 
BRANCH  17  18
ATOM     18  C   LEU A   9      22.858  20.386  22.160  0.00  0.00    +0.241 C 
ATOM     19  O   LEU A   9      22.284  20.441  23.248  0.00  0.00    -0.273 OA
ATOM     20  N   ALA A  10      24.145  20.072  22.036  0.00  0.00    -0.297 N 
ATOM     21  H   ALA A  10      24.575  20.077  21.089  0.00  0.00    +0.150 HD
BRANCH  20  22
ATOM     22  CA  ALA A  10      24.975  19.720  23.186  0.00  0.00    +0.149 C 
ATOM     23  CB  ALA A  10      26.229  18.976  22.727  0.00  0.00    +0.031 C 
BRANCH  22  24
ATOM     24  C   ALA A  10      25.358  20.945  24.019  0.00  0.00    +0.241 C 
ATOM     25  O   ALA A  10      25.650  20.814  25.205  0.00  0.00    -0.273 OA
ATOM     26  N   ALA A  11      25.343  22.127  23.403  0.00  0.00    -0.297 N 
ATOM     27  H   ALA A  11      25.065  22.169  22.402  0.00  0.00    +0.150 HD
BRANCH  26  28
ATOM     28  CA  ALA A  11      25.706  23.371  24.091  0.00  0.00    +0.149 C 
ATOM     29  CB  ALA A  11      26.260  24.393  23.093  0.00  0.00    +0.031 C 
BRANCH  28  30
ATOM     30  C   ALA A  11      24.527  23.962  24.874  0.00  0.00    +0.241 C 
ATOM     31  O   ALA A  11      24.528  23.924  26.109  0.00  0.00    -0.273 OA
ATOM     32  N   GLY A  12      23.537  24.504  24.155  0.00  0.00    -0.295 N 
ATOM     33  H   GLY A  12      23.634  24.533  23.120  0.00  0.00    +0.150 HD
BRANCH  32  34
ATOM     34  CA  GLY A  12      22.325  25.058  24.758  0.00  0.00    +0.176 C 
BRANCH  34  35
ATOM     35  C   GLY A  12      21.790  26.318  24.079  0.00  0.00    +0.243 C 
ATOM     36  N   HIS A  13      20.811  26.958  24.726  0.00  0.00    -0.298 N 
ATOM     37  H   HIS A  13      20.370  26.485  25.541  0.00  0.00    +0.150 HD
ATOM     38  O   GLY A  12      22.234  26.687  22.986  0.00  0.00    -0.273 OA
BRANCH  36  39
ATOM     39  CA  HIS A  13      20.321  28.296  24.349  0.00  0.00    +0.143 C 
BRANCH  39  40
ATOM     40  C   HIS A  13      19.767  28.411  22.917  0.00  0.00    +0.227 C 
ATOM     41  O   HIS A  13      18.560  28.269  22.683  0.00  0.00    -0.286 OA
ENDBRANCH  39  40
BRANCH  39  42
ATOM     42  CB  HIS A  13      21.431  29.335  24.567  0.00  0.00    +0.075 C 
BRANCH  42  43
ATOM     43  CG  HIS A  13      20.929  30.706  24.904  0.00  0.00    +0.082 A 
ATOM     44  CD2 HIS A  13      20.243  31.167  25.977  0.00  0.00    +0.115 A 
ATOM     45  NE2 HIS A  13      20.053  32.516  25.789  0.00  0.00    -0.221 NA
ATOM     46  CE1 HIS A  13      20.609  32.873  24.643  0.00  0.00    +0.199 A 
ATOM     47  ND1 HIS A  13      21.147  31.800  24.090  0.00  0.00    -0.227 NA
ENDBRANCH  42  43
ENDBRANCH  39  42
ENDBRANCH  36  39
ENDBRANCH  34  35
ENDBRANCH  32  34
ENDBRANCH  28  30
ENDBRANCH  26  28
ENDBRANCH  22  24
ENDBRANCH  20  22
ENDBRANCH  17  18
BRANCH  17  48
ATOM     48  CB  LEU A   9      21.418  19.410  20.347  0.00  0.00    +0.029 C 
BRANCH  48  49
ATOM     49  CG  LEU A   9      20.388  19.597  19.224  0.00  0.00    +0.002 C 
ATOM     50  CD2 LEU A   9      19.185  20.400  19.692  0.00  0.00    +0.000 C 
ATOM     51  CD1 LEU A   9      19.941  18.242  18.652  0.00  0.00    +0.000 C 
ENDBRANCH  48  49
ENDBRANCH  17  48
ENDBRANCH  15  17
ENDBRANCH  11  13
ENDBRANCH   9  11
ENDBRANCH   5   7
ENDBRANCH   3   5
BRANCH   1  52
ATOM     52  CA  MET A   6      24.336  17.734  17.498  0.00  0.00    +0.149 C 
BRANCH  52  55
ATOM     53  C   LEU A   5      23.458  19.586  16.175  0.00  0.00    +0.241 C 
ATOM     54  O   LEU A   5      23.048  20.162  17.169  0.00  0.00    -0.273 OA
ATOM     55  N   MET A   6      24.094  18.421  16.231  0.00  0.00    -0.297 N 
ATOM     56  H   MET A   6      24.429  17.985  15.348  0.00  0.00    +0.150 HD
BRANCH  53  57
ATOM     57  CA  LEU A   5      23.249  20.197  14.789  0.00  0.00    +0.149 C 
BRANCH  57  60
ATOM     58  C   SER A   4      25.576  20.805  14.417  0.00  0.00    +0.243 C 
ATOM     59  O   SER A   4      25.618  21.442  15.468  0.00  0.00    -0.273 OA
ATOM     60  N   LEU A   5      24.480  20.172  14.001  0.00  0.00    -0.297 N 
ATOM     61  H   LEU A   5      24.501  19.652  13.101  0.00  0.00    +0.150 HD
BRANCH  58  62
ATOM     62  CA  SER A   4      26.810  20.711  13.532  0.00  0.00    +0.178 C 
BRANCH  62  65
ATOM     63  C   LEU A   3      27.600  18.462  14.021  0.00  0.00    +0.241 C 
ATOM     64  O   LEU A   3      27.703  18.691  15.217  0.00  0.00    -0.273 OA
ATOM     65  N   SER A   4      27.096  19.335  13.152  0.00  0.00    -0.295 N 
ATOM     66  H   SER A   4      26.902  19.027  12.178  0.00  0.00    +0.150 HD
BRANCH  63  67
ATOM     67  CA  LEU A   3      28.035  17.125  13.458  0.00  0.00    +0.149 C 
BRANCH  67  70
ATOM     68  C   GLU A   2      25.777  16.349  13.009  0.00  0.00    +0.241 C 
ATOM     69  O   GLU A   2      25.399  16.600  14.148  0.00  0.00    -0.273 OA
ATOM     70  N   LEU A   3      27.010  16.587  12.582  0.00  0.00    -0.297 N 
ATOM     71  H   LEU A   3      27.249  16.382  11.591  0.00  0.00    +0.150 HD
BRANCH  68  72
ATOM     72  CA  GLU A   2      24.827  15.754  11.988  0.00  0.00    +0.149 C 
BRANCH  72  75
ATOM     73  C   GLY A   1      24.691  17.693  10.507  0.00  0.00    +0.240 C 
ATOM     74  O   GLY A   1      24.299  18.423  11.414  0.00  0.00    -0.274 OA
ATOM     75  N   GLU A   2      24.987  16.408  10.690  0.00  0.00    -0.297 N 
ATOM     76  H   GLU A   2      25.343  15.853   9.886  0.00  0.00    +0.150 HD
BRANCH  73  77
ATOM     77  CA  GLY A   1      24.856  18.244   9.102  0.00  0.00    +0.169 C 
BRANCH  77  78
ATOM     78  N   GLY A   1      26.062  17.773   8.447  0.00  0.00    -0.236 NA
ATOM     79  H   GLY A   1      25.989  17.299   7.524  0.00  0.00    +0.142 HD
ENDBRANCH  77  78
ENDBRANCH  73  77
ENDBRANCH  72  75
BRANCH  72  80
ATOM     80  CB  GLU A   2      25.087  14.248  11.887  0.00  0.00    +0.041 C 
BRANCH  80  81
ATOM     81  CG  GLU A   2      24.113  13.505  10.993  0.00  0.00    +0.116 C 
BRANCH  81  82
ATOM     82  CD  GLU A   2      22.722  13.448  11.576  0.00  0.00    +0.365 C 
ATOM     83  OE2 GLU A   2      22.485  12.610  12.471  0.00  0.00    -0.246 OA
ATOM     84  OE1 GLU A   2      21.880  14.258  11.155  0.00  0.00    -0.246 OA
ENDBRANCH  81  82
ENDBRANCH  80  81
ENDBRANCH  72  80
ENDBRANCH  68  72
ENDBRANCH  67  70
BRANCH  67  85
ATOM     85  CB  LEU A   3      29.358  17.305  12.698  0.00  0.00    +0.029 C 
BRANCH  85  86
ATOM     86  CG  LEU A   3      30.308  16.117  12.665  0.00  0.00    +0.002 C 
ATOM     87  CD2 LEU A   3      30.750  15.712  14.075  0.00  0.00    +0.000 C 
ATOM     88  CD1 LEU A   3      31.516  16.475  11.813  0.00  0.00    +0.000 C 
ENDBRANCH  85  86
ENDBRANCH  67  85
ENDBRANCH  63  67
ENDBRANCH  62  65
BRANCH  62  89
ATOM     89  CB  SER A   4      26.644  21.577  12.288  0.00  0.00    +0.166 C 
BRANCH  89  90
ATOM     90  OG  SER A   4      26.600  22.945  12.635  0.00  0.00    -0.380 OA
ATOM     91  H   SER A   4      26.492  23.489  11.815  0.00  0.00    +0.211 HD
ENDBRANCH  89  90
ENDBRANCH  62  89
ENDBRANCH  58  62
ENDBRANCH  57  60
BRANCH  57  92
ATOM     92  CB  LEU A   5      22.105  19.469  14.061  0.00  0.00    +0.029 C 
BRANCH  92  93
ATOM     93  CG  LEU A   5      20.760  19.478  14.784  0.00  0.00    +0.002 C 
ATOM     94  CD2 LEU A   5      20.396  20.884  15.242  0.00  0.00    +0.000 C 
ATOM     95  CD1 LEU A   5      19.668  18.897  13.901  0.00  0.00    +0.000 C 
ENDBRANCH  92  93
ENDBRANCH  57  92
ENDBRANCH  53  57
ENDBRANCH  52  55
BRANCH  52  96
ATOM     96  CB  MET A   6      25.020  16.383  17.266  0.00  0.00    +0.041 C 
BRANCH  96  97
ATOM     97  CG  MET A   6      24.195  15.366  16.476  0.00  0.00    +0.060 C 
BRANCH  97  98
ATOM     98  SD  MET A   6      22.672  14.955  17.270  0.00  0.00    -0.139 S 
ATOM     99  CE  MET A   6      23.259  13.986  18.561  0.00  0.00    +0.069 C 
ENDBRANCH  97  98
ENDBRANCH  96  97
ENDBRANCH  52  96
ENDBRANCH   1  52
TORSDOF 42
REMARK  Name = ../refined-set-2016/3cda/3cda_pocket.pdb
REMARK  251 active torsions:
REMARK  status: ('A' for Active; 'I' for Inactive)
REMARK    1  A    between atoms: _1  and  _3
REMARK    2  A    between atoms: _3  and  _4
REMARK    3  A    between atoms: _3  and  _6
REMARK    4  A    between atoms: _6  and  _7
REMARK    5  A    between atoms: _12  and  _13
REMARK    6  A    between atoms: _15  and  _17
REMARK    7  A    between atoms: _17  and  _18
REMARK    8  A    between atoms: _17  and  _20
REMARK    9  A    between atoms: _20  and  _21
REMARK   10  A    between atoms: _21  and  _22
REMARK   11  A    between atoms: _25  and  _27
REMARK   12  A    between atoms: _27  and  _28
REMARK   13  A    between atoms: _27  and  _30
REMARK   14  A    between atoms: _30  and  _31
REMARK   15  A    between atoms: _34  and  _36
REMARK   16  A    between atoms: _36  and  _37
REMARK   17  A    between atoms: _36  and  _39
REMARK   18  A    between atoms: _39  and  _40
REMARK   19  A    between atoms: _40  and  _41
REMARK   20  A    between atoms: _41  and  _42
REMARK   21  A    between atoms: _51  and  _53
REMARK   22  A    between atoms: _53  and  _54
REMARK   23  A    between atoms: _57  and  _58
REMARK   24  A    between atoms: _63  and  _65
REMARK   25  A    between atoms: _65  and  _66
REMARK   26  A    between atoms: _65  and  _68
REMARK   27  A    between atoms: _68  and  _69
REMARK   28  A    between atoms: _69  and  _70
REMARK   29  A    between atoms: _72  and  _74
REMARK   30  A    between atoms: _74  and  _75
REMARK   31  A    between atoms: _74  and  _77
REMARK   32  A    between atoms: _77  and  _78
REMARK   33  A    between atoms: _78  and  _79
REMARK   34  A    between atoms: _81  and  _83
REMARK   35  A    between atoms: _83  and  _84
REMARK   36  A    between atoms: _83  and  _86
REMARK   37  A    between atoms: _86  and  _87
REMARK   38  A    between atoms: _92  and  _94
REMARK   39  A    between atoms: _94  and  _95
REMARK   40  A    between atoms: _94  and  _97
REMARK   41  A    between atoms: _97  and  _98
REMARK   42  A    between atoms: _101  and  _103
REMARK   43  A    between atoms: _103  and  _104
REMARK   44  A    between atoms: _103  and  _106
REMARK   45  A    between atoms: _106  and  _107
REMARK   46  A    between atoms: _109  and  _111
REMARK   47  A    between atoms: _111  and  _112
REMARK   48  A    between atoms: _111  and  _114
REMARK   49  A    between atoms: _114  and  _115
REMARK   50  A    between atoms: _115  and  _116
REMARK   51  A    between atoms: _116  and  _117
REMARK   52  A    between atoms: _117  and  _118
REMARK   53  A    between atoms: _122  and  _124
REMARK   54  A    between atoms: _124  and  _125
REMARK   55  A    between atoms: _124  and  _127
REMARK   56  A    between atoms: _127  and  _128
REMARK   57  A    between atoms: _131  and  _133
REMARK   58  A    between atoms: _133  and  _134
REMARK   59  A    between atoms: _133  and  _136
REMARK   60  A    between atoms: _136  and  _137
REMARK   61  A    between atoms: _137  and  _138
REMARK   62  A    between atoms: _141  and  _143
REMARK   63  A    between atoms: _143  and  _144
REMARK   64  A    between atoms: _147  and  _149
REMARK   65  A    between atoms: _149  and  _150
REMARK   66  A    between atoms: _149  and  _152
REMARK   67  A    between atoms: _155  and  _157
REMARK   68  A    between atoms: _157  and  _158
REMARK   69  A    between atoms: _157  and  _160
REMARK   70  A    between atoms: _160  and  _161
REMARK   71  A    between atoms: _163  and  _165
REMARK   72  A    between atoms: _165  and  _166
REMARK   73  A    between atoms: _168  and  _170
REMARK   74  A    between atoms: _170  and  _171
REMARK   75  A    between atoms: _170  and  _173
REMARK   76  A    between atoms: _173  and  _174
REMARK   77  A    between atoms: _179  and  _181
REMARK   78  A    between atoms: _181  and  _182
REMARK   79  A    between atoms: _181  and  _184
REMARK   80  A    between atoms: _184  and  _185
REMARK   81  A    between atoms: _190  and  _191
REMARK   82  A    between atoms: _193  and  _195
REMARK   83  A    between atoms: _195  and  _196
REMARK   84  A    between atoms: _195  and  _198
REMARK   85  A    between atoms: _200  and  _202
REMARK   86  A    between atoms: _202  and  _203
REMARK   87  A    between atoms: _202  and  _205
REMARK   88  A    between atoms: _205  and  _206
REMARK   89  A    between atoms: _209  and  _211
REMARK   90  A    between atoms: _211  and  _212
REMARK   91  A    between atoms: _211  and  _214
REMARK   92  A    between atoms: _214  and  _215
REMARK   93  A    between atoms: _218  and  _220
REMARK   94  A    between atoms: _220  and  _221
REMARK   95  A    between atoms: _220  and  _223
REMARK   96  A    between atoms: _223  and  _224
REMARK   97  A    between atoms: _224  and  _225
REMARK   98  A    between atoms: _225  and  _226
REMARK   99  A    between atoms: _226  and  _227
REMARK  100  A    between atoms: _231  and  _233
REMARK  101  A    between atoms: _233  and  _234
REMARK  102  A    between atoms: _233  and  _236
REMARK  103  A    between atoms: _236  and  _237
REMARK  104  A    between atoms: _237  and  _238
REMARK  105  A    between atoms: _238  and  _239
REMARK  106  A    between atoms: _239  and  _240
REMARK  107  A    between atoms: _244  and  _246
REMARK  108  A    between atoms: _246  and  _247
REMARK  109  A    between atoms: _246  and  _249
REMARK  110  A    between atoms: _249  and  _250
REMARK  111  A    between atoms: _250  and  _251
REMARK  112  A    between atoms: _251  and  _252
REMARK  113  A    between atoms: _261  and  _263
REMARK  114  A    between atoms: _263  and  _264
REMARK  115  A    between atoms: _263  and  _266
REMARK  116  A    between atoms: _266  and  _267
REMARK  117  A    between atoms: _270  and  _272
REMARK  118  A    between atoms: _272  and  _273
REMARK  119  A    between atoms: _276  and  _278
REMARK  120  A    between atoms: _278  and  _279
REMARK  121  A    between atoms: _278  and  _281
REMARK  122  A    between atoms: _281  and  _282
REMARK  123  A    between atoms: _282  and  _283
REMARK  124  A    between atoms: _288  and  _290
REMARK  125  A    between atoms: _290  and  _291
REMARK  126  A    between atoms: _290  and  _293
REMARK  127  A    between atoms: _293  and  _294
REMARK  128  A    between atoms: _294  and  _295
REMARK  129  A    between atoms: _298  and  _300
REMARK  130  A    between atoms: _300  and  _301
REMARK  131  A    between atoms: _303  and  _305
REMARK  132  A    between atoms: _305  and  _306
REMARK  133  A    between atoms: _305  and  _308
REMARK  134  A    between atoms: _310  and  _312
REMARK  135  A    between atoms: _312  and  _313
REMARK  136  A    between atoms: _312  and  _315
REMARK  137  A    between atoms: _315  and  _316
REMARK  138  A    between atoms: _319  and  _321
REMARK  139  A    between atoms: _321  and  _322
REMARK  140  A    between atoms: _321  and  _324
REMARK  141  A    between atoms: _327  and  _329
REMARK  142  A    between atoms: _329  and  _330
REMARK  143  A    between atoms: _333  and  _335
REMARK  144  A    between atoms: _335  and  _336
REMARK  145  A    between atoms: _335  and  _338
REMARK  146  A    between atoms: _338  and  _339
REMARK  147  A    between atoms: _341  and  _343
REMARK  148  A    between atoms: _343  and  _344
REMARK  149  A    between atoms: _343  and  _346
REMARK  150  A    between atoms: _346  and  _347
REMARK  151  A    between atoms: _350  and  _352
REMARK  152  A    between atoms: _352  and  _353
REMARK  153  A    between atoms: _352  and  _355
REMARK  154  A    between atoms: _355  and  _356
REMARK  155  A    between atoms: _361  and  _363
REMARK  156  A    between atoms: _363  and  _364
REMARK  157  A    between atoms: _363  and  _366
REMARK  158  A    between atoms: _366  and  _367
REMARK  159  A    between atoms: _367  and  _368
REMARK  160  A    between atoms: _368  and  _369
REMARK  161  A    between atoms: _378  and  _380
REMARK  162  A    between atoms: _380  and  _381
REMARK  163  A    between atoms: _383  and  _385
REMARK  164  A    between atoms: _385  and  _386
REMARK  165  A    between atoms: _385  and  _388
REMARK  166  A    between atoms: _391  and  _393
REMARK  167  A    between atoms: _393  and  _394
REMARK  168  A    between atoms: _393  and  _396
REMARK  169  A    between atoms: _396  and  _397
REMARK  170  A    between atoms: _400  and  _402
REMARK  171  A    between atoms: _402  and  _403
REMARK  172  A    between atoms: _402  and  _405
REMARK  173  A    between atoms: _405  and  _406
REMARK  174  A    between atoms: _406  and  _407
REMARK  175  A    between atoms: _407  and  _408
REMARK  176  A    between atoms: _408  and  _409
REMARK  177  A    between atoms: _413  and  _415
REMARK  178  A    between atoms: _415  and  _416
REMARK  179  A    between atoms: _415  and  _418
REMARK  180  A    between atoms: _418  and  _419
REMARK  181  A    between atoms: _419  and  _420
REMARK  182  A    between atoms: _420  and  _421
REMARK  183  A    between atoms: _421  and  _422
REMARK  184  A    between atoms: _426  and  _428
REMARK  185  A    between atoms: _428  and  _429
REMARK  186  A    between atoms: _428  and  _431
REMARK  187  A    between atoms: _431  and  _432
REMARK  188  A    between atoms: _437  and  _439
REMARK  189  A    between atoms: _439  and  _440
REMARK  190  A    between atoms: _439  and  _442
REMARK  191  A    between atoms: _442  and  _443
REMARK  192  A    between atoms: _448  and  _450
REMARK  193  A    between atoms: _450  and  _451
REMARK  194  A    between atoms: _454  and  _456
REMARK  195  A    between atoms: _456  and  _457
REMARK  196  A    between atoms: _456  and  _459
REMARK  197  A    between atoms: _459  and  _460
REMARK  198  A    between atoms: _465  and  _467
REMARK  199  A    between atoms: _467  and  _468
REMARK  200  A    between atoms: _471  and  _473
REMARK  201  A    between atoms: _473  and  _474
REMARK  202  A    between atoms: _477  and  _479
REMARK  203  A    between atoms: _479  and  _480
REMARK  204  A    between atoms: _479  and  _482
REMARK  205  A    between atoms: _482  and  _483
REMARK  206  A    between atoms: _488  and  _490
REMARK  207  A    between atoms: _490  and  _491
REMARK  208  A    between atoms: _490  and  _493
REMARK  209  A    between atoms: _493  and  _494
REMARK  210  A    between atoms: _497  and  _499
REMARK  211  A    between atoms: _499  and  _500
REMARK  212  A    between atoms: _502  and  _504
REMARK  213  A    between atoms: _504  and  _505
REMARK  214  A    between atoms: _504  and  _507
REMARK  215  A    between atoms: _507  and  _508
REMARK  216  A    between atoms: _508  and  _509
REMARK  217  A    between atoms: _512  and  _514
REMARK  218  A    between atoms: _514  and  _515
REMARK  219  A    between atoms: _514  and  _517
REMARK  220  A    between atoms: _517  and  _518
REMARK  221  A    between atoms: _521  and  _523
REMARK  222  A    between atoms: _523  and  _524
REMARK  223  A    between atoms: _523  and  _526
REMARK  224  A    between atoms: _526  and  _527
REMARK  225  A    between atoms: _529  and  _531
REMARK  226  A    between atoms: _531  and  _532
REMARK  227  A    between atoms: _531  and  _534
REMARK  228  A    between atoms: _534  and  _535
REMARK  229  A    between atoms: _538  and  _540
REMARK  230  A    between atoms: _540  and  _541
REMARK  231  A    between atoms: _540  and  _543
REMARK  232  A    between atoms: _543  and  _544
REMARK  233  A    between atoms: _544  and  _545
REMARK  234  A    between atoms: _547  and  _549
REMARK  235  A    between atoms: _549  and  _550
REMARK  236  A    between atoms: _553  and  _555
REMARK  237  A    between atoms: _555  and  _556
REMARK  238  A    between atoms: _559  and  _561
REMARK  239  A    between atoms: _561  and  _562
REMARK  240  A    between atoms: _561  and  _564
REMARK  241  A    between atoms: _564  and  _565
REMARK  242  A    between atoms: _568  and  _570
REMARK  243  A    between atoms: _570  and  _571
REMARK  244  A    between atoms: _574  and  _576
REMARK  245  A    between atoms: _576  and  _577
REMARK  246  A    between atoms: _580  and  _582
REMARK  247  A    between atoms: _582  and  _583
REMARK  248  A    between atoms: _585  and  _587
REMARK  249  A    between atoms: _587  and  _588
REMARK  250  A    between atoms: _587  and  _590
REMARK  251  A    between atoms: _590  and  _591
REMARK                            x       y       z     vdW  Elec       q    Type
REMARK                         _______ _______ _______ _____ _____    ______ ____
ROOT
ATOM      1  O   HOH     1      12.898  15.047  16.504  0.00  0.00    +0.000 OA
ENDROOT
TORSDOF 0
REMARK  Name = ../refined-set-2016/3cda/3cda_pocket.pdb
REMARK  251 active torsions:
REMARK  status: ('A' for Active; 'I' for Inactive)
REMARK    1  A    between atoms: _1  and  _3
REMARK    2  A    between atoms: _3  and  _4
REMARK    3  A    between atoms: _3  and  _6
REMARK    4  A    between atoms: _6  and  _7
REMARK    5  A    between atoms: _12  and  _13
REMARK    6  A    between atoms: _15  and  _17
REMARK    7  A    between atoms: _17  and  _18
REMARK    8  A    between atoms: _17  and  _20
REMARK    9  A    between atoms: _20  and  _21
REMARK   10  A    between atoms: _21  and  _22
REMARK   11  A    between atoms: _25  and  _27
REMARK   12  A    between atoms: _27  and  _28
REMARK   13  A    between atoms: _27  and  _30
REMARK   14  A    between atoms: _30  and  _31
REMARK   15  A    between atoms: _34  and  _36
REMARK   16  A    between atoms: _36  and  _37
REMARK   17  A    between atoms: _36  and  _39
REMARK   18  A    between atoms: _39  and  _40
REMARK   19  A    between atoms: _40  and  _41
REMARK   20  A    between atoms: _41  and  _42
REMARK   21  A    between atoms: _51  and  _53
REMARK   22  A    between atoms: _53  and  _54
REMARK   23  A    between atoms: _57  and  _58
REMARK   24  A    between atoms: _63  and  _65
REMARK   25  A    between atoms: _65  and  _66
REMARK   26  A    between atoms: _65  and  _68
REMARK   27  A    between atoms: _68  and  _69
REMARK   28  A    between atoms: _69  and  _70
REMARK   29  A    between atoms: _72  and  _74
REMARK   30  A    between atoms: _74  and  _75
REMARK   31  A    between atoms: _74  and  _77
REMARK   32  A    between atoms: _77  and  _78
REMARK   33  A    between atoms: _78  and  _79
REMARK   34  A    between atoms: _81  and  _83
REMARK   35  A    between atoms: _83  and  _84
REMARK   36  A    between atoms: _83  and  _86
REMARK   37  A    between atoms: _86  and  _87
REMARK   38  A    between atoms: _92  and  _94
REMARK   39  A    between atoms: _94  and  _95
REMARK   40  A    between atoms: _94  and  _97
REMARK   41  A    between atoms: _97  and  _98
REMARK   42  A    between atoms: _101  and  _103
REMARK   43  A    between atoms: _103  and  _104
REMARK   44  A    between atoms: _103  and  _106
REMARK   45  A    between atoms: _106  and  _107
REMARK   46  A    between atoms: _109  and  _111
REMARK   47  A    between atoms: _111  and  _112
REMARK   48  A    between atoms: _111  and  _114
REMARK   49  A    between atoms: _114  and  _115
REMARK   50  A    between atoms: _115  and  _116
REMARK   51  A    between atoms: _116  and  _117
REMARK   52  A    between atoms: _117  and  _118
REMARK   53  A    between atoms: _122  and  _124
REMARK   54  A    between atoms: _124  and  _125
REMARK   55  A    between atoms: _124  and  _127
REMARK   56  A    between atoms: _127  and  _128
REMARK   57  A    between atoms: _131  and  _133
REMARK   58  A    between atoms: _133  and  _134
REMARK   59  A    between atoms: _133  and  _136
REMARK   60  A    between atoms: _136  and  _137
REMARK   61  A    between atoms: _137  and  _138
REMARK   62  A    between atoms: _141  and  _143
REMARK   63  A    between atoms: _143  and  _144
REMARK   64  A    between atoms: _147  and  _149
REMARK   65  A    between atoms: _149  and  _150
REMARK   66  A    between atoms: _149  and  _152
REMARK   67  A    between atoms: _155  and  _157
REMARK   68  A    between atoms: _157  and  _158
REMARK   69  A    between atoms: _157  and  _160
REMARK   70  A    between atoms: _160  and  _161
REMARK   71  A    between atoms: _163  and  _165
REMARK   72  A    between atoms: _165  and  _166
REMARK   73  A    between atoms: _168  and  _170
REMARK   74  A    between atoms: _170  and  _171
REMARK   75  A    between atoms: _170  and  _173
REMARK   76  A    between atoms: _173  and  _174
REMARK   77  A    between atoms: _179  and  _181
REMARK   78  A    between atoms: _181  and  _182
REMARK   79  A    between atoms: _181  and  _184
REMARK   80  A    between atoms: _184  and  _185
REMARK   81  A    between atoms: _190  and  _191
REMARK   82  A    between atoms: _193  and  _195
REMARK   83  A    between atoms: _195  and  _196
REMARK   84  A    between atoms: _195  and  _198
REMARK   85  A    between atoms: _200  and  _202
REMARK   86  A    between atoms: _202  and  _203
REMARK   87  A    between atoms: _202  and  _205
REMARK   88  A    between atoms: _205  and  _206
REMARK   89  A    between atoms: _209  and  _211
REMARK   90  A    between atoms: _211  and  _212
REMARK   91  A    between atoms: _211  and  _214
REMARK   92  A    between atoms: _214  and  _215
REMARK   93  A    between atoms: _218  and  _220
REMARK   94  A    between atoms: _220  and  _221
REMARK   95  A    between atoms: _220  and  _223
REMARK   96  A    between atoms: _223  and  _224
REMARK   97  A    between atoms: _224  and  _225
REMARK   98  A    between atoms: _225  and  _226
REMARK   99  A    between atoms: _226  and  _227
REMARK  100  A    between atoms: _231  and  _233
REMARK  101  A    between atoms: _233  and  _234
REMARK  102  A    between atoms: _233  and  _236
REMARK  103  A    between atoms: _236  and  _237
REMARK  104  A    between atoms: _237  and  _238
REMARK  105  A    between atoms: _238  and  _239
REMARK  106  A    between atoms: _239  and  _240
REMARK  107  A    between atoms: _244  and  _246
REMARK  108  A    between atoms: _246  and  _247
REMARK  109  A    between atoms: _246  and  _249
REMARK  110  A    between atoms: _249  and  _250
REMARK  111  A    between atoms: _250  and  _251
REMARK  112  A    between atoms: _251  and  _252
REMARK  113  A    between atoms: _261  and  _263
REMARK  114  A    between atoms: _263  and  _264
REMARK  115  A    between atoms: _263  and  _266
REMARK  116  A    between atoms: _266  and  _267
REMARK  117  A    between atoms: _270  and  _272
REMARK  118  A    between atoms: _272  and  _273
REMARK  119  A    between atoms: _276  and  _278
REMARK  120  A    between atoms: _278  and  _279
REMARK  121  A    between atoms: _278  and  _281
REMARK  122  A    between atoms: _281  and  _282
REMARK  123  A    between atoms: _282  and  _283
REMARK  124  A    between atoms: _288  and  _290
REMARK  125  A    between atoms: _290  and  _291
REMARK  126  A    between atoms: _290  and  _293
REMARK  127  A    between atoms: _293  and  _294
REMARK  128  A    between atoms: _294  and  _295
REMARK  129  A    between atoms: _298  and  _300
REMARK  130  A    between atoms: _300  and  _301
REMARK  131  A    between atoms: _303  and  _305
REMARK  132  A    between atoms: _305  and  _306
REMARK  133  A    between atoms: _305  and  _308
REMARK  134  A    between atoms: _310  and  _312
REMARK  135  A    between atoms: _312  and  _313
REMARK  136  A    between atoms: _312  and  _315
REMARK  137  A    between atoms: _315  and  _316
REMARK  138  A    between atoms: _319  and  _321
REMARK  139  A    between atoms: _321  and  _322
REMARK  140  A    between atoms: _321  and  _324
REMARK  141  A    between atoms: _327  and  _329
REMARK  142  A    between atoms: _329  and  _330
REMARK  143  A    between atoms: _333  and  _335
REMARK  144  A    between atoms: _335  and  _336
REMARK  145  A    between atoms: _335  and  _338
REMARK  146  A    between atoms: _338  and  _339
REMARK  147  A    between atoms: _341  and  _343
REMARK  148  A    between atoms: _343  and  _344
REMARK  149  A    between atoms: _343  and  _346
REMARK  150  A    between atoms: _346  and  _347
REMARK  151  A    between atoms: _350  and  _352
REMARK  152  A    between atoms: _352  and  _353
REMARK  153  A    between atoms: _352  and  _355
REMARK  154  A    between atoms: _355  and  _356
REMARK  155  A    between atoms: _361  and  _363
REMARK  156  A    between atoms: _363  and  _364
REMARK  157  A    between atoms: _363  and  _366
REMARK  158  A    between atoms: _366  and  _367
REMARK  159  A    between atoms: _367  and  _368
REMARK  160  A    between atoms: _368  and  _369
REMARK  161  A    between atoms: _378  and  _380
REMARK  162  A    between atoms: _380  and  _381
REMARK  163  A    between atoms: _383  and  _385
REMARK  164  A    between atoms: _385  and  _386
REMARK  165  A    between atoms: _385  and  _388
REMARK  166  A    between atoms: _391  and  _393
REMARK  167  A    between atoms: _393  and  _394
REMARK  168  A    between atoms: _393  and  _396
REMARK  169  A    between atoms: _396  and  _397
REMARK  170  A    between atoms: _400  and  _402
REMARK  171  A    between atoms: _402  and  _403
REMARK  172  A    between atoms: _402  and  _405
REMARK  173  A    between atoms: _405  and  _406
REMARK  174  A    between atoms: _406  and  _407
REMARK  175  A    between atoms: _407  and  _408
REMARK  176  A    between atoms: _408  and  _409
REMARK  177  A    between atoms: _413  and  _415
REMARK  178  A    between atoms: _415  and  _416
REMARK  179  A    between atoms: _415  and  _418
REMARK  180  A    between atoms: _418  and  _419
REMARK  181  A    between atoms: _419  and  _420
REMARK  182  A    between atoms: _420  and  _421
REMARK  183  A    between atoms: _421  and  _422
REMARK  184  A    between atoms: _426  and  _428
REMARK  185  A    between atoms: _428  and  _429
REMARK  186  A    between atoms: _428  and  _431
REMARK  187  A    between atoms: _431  and  _432
REMARK  188  A    between atoms: _437  and  _439
REMARK  189  A    between atoms: _439  and  _440
REMARK  190  A    between atoms: _439  and  _442
REMARK  191  A    between atoms: _442  and  _443
REMARK  192  A    between atoms: _448  and  _450
REMARK  193  A    between atoms: _450  and  _451
REMARK  194  A    between atoms: _454  and  _456
REMARK  195  A    between atoms: _456  and  _457
REMARK  196  A    between atoms: _456  and  _459
REMARK  197  A    between atoms: _459  and  _460
REMARK  198  A    between atoms: _465  and  _467
REMARK  199  A    between atoms: _467  and  _468
REMARK  200  A    between atoms: _471  and  _473
REMARK  201  A    between atoms: _473  and  _474
REMARK  202  A    between atoms: _477  and  _479
REMARK  203  A    between atoms: _479  and  _480
REMARK  204  A    between atoms: _479  and  _482
REMARK  205  A    between atoms: _482  and  _483
REMARK  206  A    between atoms: _488  and  _490
REMARK  207  A    between atoms: _490  and  _491
REMARK  208  A    between atoms: _490  and  _493
REMARK  209  A    between atoms: _493  and  _494
REMARK  210  A    between atoms: _497  and  _499
REMARK  211  A    between atoms: _499  and  _500
REMARK  212  A    between atoms: _502  and  _504
REMARK  213  A    between atoms: _504  and  _505
REMARK  214  A    between atoms: _504  and  _507
REMARK  215  A    between atoms: _507  and  _508
REMARK  216  A    between atoms: _508  and  _509
REMARK  217  A    between atoms: _512  and  _514
REMARK  218  A    between atoms: _514  and  _515
REMARK  219  A    between atoms: _514  and  _517
REMARK  220  A    between atoms: _517  and  _518
REMARK  221  A    between atoms: _521  and  _523
REMARK  222  A    between atoms: _523  and  _524
REMARK  223  A    between atoms: _523  and  _526
REMARK  224  A    between atoms: _526  and  _527
REMARK  225  A    between atoms: _529  and  _531
REMARK  226  A    between atoms: _531  and  _532
REMARK  227  A    between atoms: _531  and  _534
REMARK  228  A    between atoms: _534  and  _535
REMARK  229  A    between atoms: _538  and  _540
REMARK  230  A    between atoms: _540  and  _541
REMARK  231  A    between atoms: _540  and  _543
REMARK  232  A    between atoms: _543  and  _544
REMARK  233  A    between atoms: _544  and  _545
REMARK  234  A    between atoms: _547  and  _549
REMARK  235  A    between atoms: _549  and  _550
REMARK  236  A    between atoms: _553  and  _555
REMARK  237  A    between atoms: _555  and  _556
REMARK  238  A    between atoms: _559  and  _561
REMARK  239  A    between atoms: _561  and  _562
REMARK  240  A    between atoms: _561  and  _564
REMARK  241  A    between atoms: _564  and  _565
REMARK  242  A    between atoms: _568  and  _570
REMARK  243  A    between atoms: _570  and  _571
REMARK  244  A    between atoms: _574  and  _576
REMARK  245  A    between atoms: _576  and  _577
REMARK  246  A    between atoms: _580  and  _582
REMARK  247  A    between atoms: _582  and  _583
REMARK  248  A    between atoms: _585  and  _587
REMARK  249  A    between atoms: _587  and  _588
REMARK  250  A    between atoms: _587  and  _590
REMARK  251  A    between atoms: _590  and  _591
REMARK                            x       y       z     vdW  Elec       q    Type
REMARK                         _______ _______ _______ _____ _____    ______ ____
ROOT
ATOM      1  O   HOH     1      12.530  24.696  16.052  0.00  0.00    +0.000 OA
ENDROOT
TORSDOF 0
REMARK  Name = ../refined-set-2016/3cda/3cda_pocket.pdb
REMARK  251 active torsions:
REMARK  status: ('A' for Active; 'I' for Inactive)
REMARK    1  A    between atoms: _1  and  _3
REMARK    2  A    between atoms: _3  and  _4
REMARK    3  A    between atoms: _3  and  _6
REMARK    4  A    between atoms: _6  and  _7
REMARK    5  A    between atoms: _12  and  _13
REMARK    6  A    between atoms: _15  and  _17
REMARK    7  A    between atoms: _17  and  _18
REMARK    8  A    between atoms: _17  and  _20
REMARK    9  A    between atoms: _20  and  _21
REMARK   10  A    between atoms: _21  and  _22
REMARK   11  A    between atoms: _25  and  _27
REMARK   12  A    between atoms: _27  and  _28
REMARK   13  A    between atoms: _27  and  _30
REMARK   14  A    between atoms: _30  and  _31
REMARK   15  A    between atoms: _34  and  _36
REMARK   16  A    between atoms: _36  and  _37
REMARK   17  A    between atoms: _36  and  _39
REMARK   18  A    between atoms: _39  and  _40
REMARK   19  A    between atoms: _40  and  _41
REMARK   20  A    between atoms: _41  and  _42
REMARK   21  A    between atoms: _51  and  _53
REMARK   22  A    between atoms: _53  and  _54
REMARK   23  A    between atoms: _57  and  _58
REMARK   24  A    between atoms: _63  and  _65
REMARK   25  A    between atoms: _65  and  _66
REMARK   26  A    between atoms: _65  and  _68
REMARK   27  A    between atoms: _68  and  _69
REMARK   28  A    between atoms: _69  and  _70
REMARK   29  A    between atoms: _72  and  _74
REMARK   30  A    between atoms: _74  and  _75
REMARK   31  A    between atoms: _74  and  _77
REMARK   32  A    between atoms: _77  and  _78
REMARK   33  A    between atoms: _78  and  _79
REMARK   34  A    between atoms: _81  and  _83
REMARK   35  A    between atoms: _83  and  _84
REMARK   36  A    between atoms: _83  and  _86
REMARK   37  A    between atoms: _86  and  _87
REMARK   38  A    between atoms: _92  and  _94
REMARK   39  A    between atoms: _94  and  _95
REMARK   40  A    between atoms: _94  and  _97
REMARK   41  A    between atoms: _97  and  _98
REMARK   42  A    between atoms: _101  and  _103
REMARK   43  A    between atoms: _103  and  _104
REMARK   44  A    between atoms: _103  and  _106
REMARK   45  A    between atoms: _106  and  _107
REMARK   46  A    between atoms: _109  and  _111
REMARK   47  A    between atoms: _111  and  _112
REMARK   48  A    between atoms: _111  and  _114
REMARK   49  A    between atoms: _114  and  _115
REMARK   50  A    between atoms: _115  and  _116
REMARK   51  A    between atoms: _116  and  _117
REMARK   52  A    between atoms: _117  and  _118
REMARK   53  A    between atoms: _122  and  _124
REMARK   54  A    between atoms: _124  and  _125
REMARK   55  A    between atoms: _124  and  _127
REMARK   56  A    between atoms: _127  and  _128
REMARK   57  A    between atoms: _131  and  _133
REMARK   58  A    between atoms: _133  and  _134
REMARK   59  A    between atoms: _133  and  _136
REMARK   60  A    between atoms: _136  and  _137
REMARK   61  A    between atoms: _137  and  _138
REMARK   62  A    between atoms: _141  and  _143
REMARK   63  A    between atoms: _143  and  _144
REMARK   64  A    between atoms: _147  and  _149
REMARK   65  A    between atoms: _149  and  _150
REMARK   66  A    between atoms: _149  and  _152
REMARK   67  A    between atoms: _155  and  _157
REMARK   68  A    between atoms: _157  and  _158
REMARK   69  A    between atoms: _157  and  _160
REMARK   70  A    between atoms: _160  and  _161
REMARK   71  A    between atoms: _163  and  _165
REMARK   72  A    between atoms: _165  and  _166
REMARK   73  A    between atoms: _168  and  _170
REMARK   74  A    between atoms: _170  and  _171
REMARK   75  A    between atoms: _170  and  _173
REMARK   76  A    between atoms: _173  and  _174
REMARK   77  A    between atoms: _179  and  _181
REMARK   78  A    between atoms: _181  and  _182
REMARK   79  A    between atoms: _181  and  _184
REMARK   80  A    between atoms: _184  and  _185
REMARK   81  A    between atoms: _190  and  _191
REMARK   82  A    between atoms: _193  and  _195
REMARK   83  A    between atoms: _195  and  _196
REMARK   84  A    between atoms: _195  and  _198
REMARK   85  A    between atoms: _200  and  _202
REMARK   86  A    between atoms: _202  and  _203
REMARK   87  A    between atoms: _202  and  _205
REMARK   88  A    between atoms: _205  and  _206
REMARK   89  A    between atoms: _209  and  _211
REMARK   90  A    between atoms: _211  and  _212
REMARK   91  A    between atoms: _211  and  _214
REMARK   92  A    between atoms: _214  and  _215
REMARK   93  A    between atoms: _218  and  _220
REMARK   94  A    between atoms: _220  and  _221
REMARK   95  A    between atoms: _220  and  _223
REMARK   96  A    between atoms: _223  and  _224
REMARK   97  A    between atoms: _224  and  _225
REMARK   98  A    between atoms: _225  and  _226
REMARK   99  A    between atoms: _226  and  _227
REMARK  100  A    between atoms: _231  and  _233
REMARK  101  A    between atoms: _233  and  _234
REMARK  102  A    between atoms: _233  and  _236
REMARK  103  A    between atoms: _236  and  _237
REMARK  104  A    between atoms: _237  and  _238
REMARK  105  A    between atoms: _238  and  _239
REMARK  106  A    between atoms: _239  and  _240
REMARK  107  A    between atoms: _244  and  _246
REMARK  108  A    between atoms: _246  and  _247
REMARK  109  A    between atoms: _246  and  _249
REMARK  110  A    between atoms: _249  and  _250
REMARK  111  A    between atoms: _250  and  _251
REMARK  112  A    between atoms: _251  and  _252
REMARK  113  A    between atoms: _261  and  _263
REMARK  114  A    between atoms: _263  and  _264
REMARK  115  A    between atoms: _263  and  _266
REMARK  116  A    between atoms: _266  and  _267
REMARK  117  A    between atoms: _270  and  _272
REMARK  118  A    between atoms: _272  and  _273
REMARK  119  A    between atoms: _276  and  _278
REMARK  120  A    between atoms: _278  and  _279
REMARK  121  A    between atoms: _278  and  _281
REMARK  122  A    between atoms: _281  and  _282
REMARK  123  A    between atoms: _282  and  _283
REMARK  124  A    between atoms: _288  and  _290
REMARK  125  A    between atoms: _290  and  _291
REMARK  126  A    between atoms: _290  and  _293
REMARK  127  A    between atoms: _293  and  _294
REMARK  128  A    between atoms: _294  and  _295
REMARK  129  A    between atoms: _298  and  _300
REMARK  130  A    between atoms: _300  and  _301
REMARK  131  A    between atoms: _303  and  _305
REMARK  132  A    between atoms: _305  and  _306
REMARK  133  A    between atoms: _305  and  _308
REMARK  134  A    between atoms: _310  and  _312
REMARK  135  A    between atoms: _312  and  _313
REMARK  136  A    between atoms: _312  and  _315
REMARK  137  A    between atoms: _315  and  _316
REMARK  138  A    between atoms: _319  and  _321
REMARK  139  A    between atoms: _321  and  _322
REMARK  140  A    between atoms: _321  and  _324
REMARK  141  A    between atoms: _327  and  _329
REMARK  142  A    between atoms: _329  and  _330
REMARK  143  A    between atoms: _333  and  _335
REMARK  144  A    between atoms: _335  and  _336
REMARK  145  A    between atoms: _335  and  _338
REMARK  146  A    between atoms: _338  and  _339
REMARK  147  A    between atoms: _341  and  _343
REMARK  148  A    between atoms: _343  and  _344
REMARK  149  A    between atoms: _343  and  _346
REMARK  150  A    between atoms: _346  and  _347
REMARK  151  A    between atoms: _350  and  _352
REMARK  152  A    between atoms: _352  and  _353
REMARK  153  A    between atoms: _352  and  _355
REMARK  154  A    between atoms: _355  and  _356
REMARK  155  A    between atoms: _361  and  _363
REMARK  156  A    between atoms: _363  and  _364
REMARK  157  A    between atoms: _363  and  _366
REMARK  158  A    between atoms: _366  and  _367
REMARK  159  A    between atoms: _367  and  _368
REMARK  160  A    between atoms: _368  and  _369
REMARK  161  A    between atoms: _378  and  _380
REMARK  162  A    between atoms: _380  and  _381
REMARK  163  A    between atoms: _383  and  _385
REMARK  164  A    between atoms: _385  and  _386
REMARK  165  A    between atoms: _385  and  _388
REMARK  166  A    between atoms: _391  and  _393
REMARK  167  A    between atoms: _393  and  _394
REMARK  168  A    between atoms: _393  and  _396
REMARK  169  A    between atoms: _396  and  _397
REMARK  170  A    between atoms: _400  and  _402
REMARK  171  A    between atoms: _402  and  _403
REMARK  172  A    between atoms: _402  and  _405
REMARK  173  A    between atoms: _405  and  _406
REMARK  174  A    between atoms: _406  and  _407
REMARK  175  A    between atoms: _407  and  _408
REMARK  176  A    between atoms: _408  and  _409
REMARK  177  A    between atoms: _413  and  _415
REMARK  178  A    between atoms: _415  and  _416
REMARK  179  A    between atoms: _415  and  _418
REMARK  180  A    between atoms: _418  and  _419
REMARK  181  A    between atoms: _419  and  _420
REMARK  182  A    between atoms: _420  and  _421
REMARK  183  A    between atoms: _421  and  _422
REMARK  184  A    between atoms: _426  and  _428
REMARK  185  A    between atoms: _428  and  _429
REMARK  186  A    between atoms: _428  and  _431
REMARK  187  A    between atoms: _431  and  _432
REMARK  188  A    between atoms: _437  and  _439
REMARK  189  A    between atoms: _439  and  _440
REMARK  190  A    between atoms: _439  and  _442
REMARK  191  A    between atoms: _442  and  _443
REMARK  192  A    between atoms: _448  and  _450
REMARK  193  A    between atoms: _450  and  _451
REMARK  194  A    between atoms: _454  and  _456
REMARK  195  A    between atoms: _456  and  _457
REMARK  196  A    between atoms: _456  and  _459
REMARK  197  A    between atoms: _459  and  _460
REMARK  198  A    between atoms: _465  and  _467
REMARK  199  A    between atoms: _467  and  _468
REMARK  200  A    between atoms: _471  and  _473
REMARK  201  A    between atoms: _473  and  _474
REMARK  202  A    between atoms: _477  and  _479
REMARK  203  A    between atoms: _479  and  _480
REMARK  204  A    between atoms: _479  and  _482
REMARK  205  A    between atoms: _482  and  _483
REMARK  206  A    between atoms: _488  and  _490
REMARK  207  A    between atoms: _490  and  _491
REMARK  208  A    between atoms: _490  and  _493
REMARK  209  A    between atoms: _493  and  _494
REMARK  210  A    between atoms: _497  and  _499
REMARK  211  A    between atoms: _499  and  _500
REMARK  212  A    between atoms: _502  and  _504
REMARK  213  A    between atoms: _504  and  _505
REMARK  214  A    between atoms: _504  and  _507
REMARK  215  A    between atoms: _507  and  _508
REMARK  216  A    between atoms: _508  and  _509
REMARK  217  A    between atoms: _512  and  _514
REMARK  218  A    between atoms: _514  and  _515
REMARK  219  A    between atoms: _514  and  _517
REMARK  220  A    between atoms: _517  and  _518
REMARK  221  A    between atoms: _521  and  _523
REMARK  222  A    between atoms: _523  and  _524
REMARK  223  A    between atoms: _523  and  _526
REMARK  224  A    between atoms: _526  and  _527
REMARK  225  A    between atoms: _529  and  _531
REMARK  226  A    between atoms: _531  and  _532
REMARK  227  A    between atoms: _531  and  _534
REMARK  228  A    between atoms: _534  and  _535
REMARK  229  A    between atoms: _538  and  _540
REMARK  230  A    between atoms: _540  and  _541
REMARK  231  A    between atoms: _540  and  _543
REMARK  232  A    between atoms: _543  and  _544
REMARK  233  A    between atoms: _544  and  _545
REMARK  234  A    between atoms: _547  and  _549
REMARK  235  A    between atoms: _549  and  _550
REMARK  236  A    between atoms: _553  and  _555
REMARK  237  A    between atoms: _555  and  _556
REMARK  238  A    between atoms: _559  and  _561
REMARK  239  A    between atoms: _561  and  _562
REMARK  240  A    between atoms: _561  and  _564
REMARK  241  A    between atoms: _564  and  _565
REMARK  242  A    between atoms: _568  and  _570
REMARK  243  A    between atoms: _570  and  _571
REMARK  244  A    between atoms: _574  and  _576
REMARK  245  A    between atoms: _576  and  _577
REMARK  246  A    between atoms: _580  and  _582
REMARK  247  A    between atoms: _582  and  _583
REMARK  248  A    between atoms: _585  and  _587
REMARK  249  A    between atoms: _587  and  _588
REMARK  250  A    between atoms: _587  and  _590
REMARK  251  A    between atoms: _590  and  _591
REMARK                            x       y       z     vdW  Elec       q    Type
REMARK                         _______ _______ _______ _____ _____    ______ ____
ROOT
ATOM      1  O   HOH     1      14.387  22.084   5.519  0.00  0.00    +0.000 OA
ENDROOT
TORSDOF 0
REMARK  Name = ../refined-set-2016/3cda/3cda_pocket.pdb
REMARK  251 active torsions:
REMARK  status: ('A' for Active; 'I' for Inactive)
REMARK    1  A    between atoms: _1  and  _3
REMARK    2  A    between atoms: _3  and  _4
REMARK    3  A    between atoms: _3  and  _6
REMARK    4  A    between atoms: _6  and  _7
REMARK    5  A    between atoms: _12  and  _13
REMARK    6  A    between atoms: _15  and  _17
REMARK    7  A    between atoms: _17  and  _18
REMARK    8  A    between atoms: _17  and  _20
REMARK    9  A    between atoms: _20  and  _21
REMARK   10  A    between atoms: _21  and  _22
REMARK   11  A    between atoms: _25  and  _27
REMARK   12  A    between atoms: _27  and  _28
REMARK   13  A    between atoms: _27  and  _30
REMARK   14  A    between atoms: _30  and  _31
REMARK   15  A    between atoms: _34  and  _36
REMARK   16  A    between atoms: _36  and  _37
REMARK   17  A    between atoms: _36  and  _39
REMARK   18  A    between atoms: _39  and  _40
REMARK   19  A    between atoms: _40  and  _41
REMARK   20  A    between atoms: _41  and  _42
REMARK   21  A    between atoms: _51  and  _53
REMARK   22  A    between atoms: _53  and  _54
REMARK   23  A    between atoms: _57  and  _58
REMARK   24  A    between atoms: _63  and  _65
REMARK   25  A    between atoms: _65  and  _66
REMARK   26  A    between atoms: _65  and  _68
REMARK   27  A    between atoms: _68  and  _69
REMARK   28  A    between atoms: _69  and  _70
REMARK   29  A    between atoms: _72  and  _74
REMARK   30  A    between atoms: _74  and  _75
REMARK   31  A    between atoms: _74  and  _77
REMARK   32  A    between atoms: _77  and  _78
REMARK   33  A    between atoms: _78  and  _79
REMARK   34  A    between atoms: _81  and  _83
REMARK   35  A    between atoms: _83  and  _84
REMARK   36  A    between atoms: _83  and  _86
REMARK   37  A    between atoms: _86  and  _87
REMARK   38  A    between atoms: _92  and  _94
REMARK   39  A    between atoms: _94  and  _95
REMARK   40  A    between atoms: _94  and  _97
REMARK   41  A    between atoms: _97  and  _98
REMARK   42  A    between atoms: _101  and  _103
REMARK   43  A    between atoms: _103  and  _104
REMARK   44  A    between atoms: _103  and  _106
REMARK   45  A    between atoms: _106  and  _107
REMARK   46  A    between atoms: _109  and  _111
REMARK   47  A    between atoms: _111  and  _112
REMARK   48  A    between atoms: _111  and  _114
REMARK   49  A    between atoms: _114  and  _115
REMARK   50  A    between atoms: _115  and  _116
REMARK   51  A    between atoms: _116  and  _117
REMARK   52  A    between atoms: _117  and  _118
REMARK   53  A    between atoms: _122  and  _124
REMARK   54  A    between atoms: _124  and  _125
REMARK   55  A    between atoms: _124  and  _127
REMARK   56  A    between atoms: _127  and  _128
REMARK   57  A    between atoms: _131  and  _133
REMARK   58  A    between atoms: _133  and  _134
REMARK   59  A    between atoms: _133  and  _136
REMARK   60  A    between atoms: _136  and  _137
REMARK   61  A    between atoms: _137  and  _138
REMARK   62  A    between atoms: _141  and  _143
REMARK   63  A    between atoms: _143  and  _144
REMARK   64  A    between atoms: _147  and  _149
REMARK   65  A    between atoms: _149  and  _150
REMARK   66  A    between atoms: _149  and  _152
REMARK   67  A    between atoms: _155  and  _157
REMARK   68  A    between atoms: _157  and  _158
REMARK   69  A    between atoms: _157  and  _160
REMARK   70  A    between atoms: _160  and  _161
REMARK   71  A    between atoms: _163  and  _165
REMARK   72  A    between atoms: _165  and  _166
REMARK   73  A    between atoms: _168  and  _170
REMARK   74  A    between atoms: _170  and  _171
REMARK   75  A    between atoms: _170  and  _173
REMARK   76  A    between atoms: _173  and  _174
REMARK   77  A    between atoms: _179  and  _181
REMARK   78  A    between atoms: _181  and  _182
REMARK   79  A    between atoms: _181  and  _184
REMARK   80  A    between atoms: _184  and  _185
REMARK   81  A    between atoms: _190  and  _191
REMARK   82  A    between atoms: _193  and  _195
REMARK   83  A    between atoms: _195  and  _196
REMARK   84  A    between atoms: _195  and  _198
REMARK   85  A    between atoms: _200  and  _202
REMARK   86  A    between atoms: _202  and  _203
REMARK   87  A    between atoms: _202  and  _205
REMARK   88  A    between atoms: _205  and  _206
REMARK   89  A    between atoms: _209  and  _211
REMARK   90  A    between atoms: _211  and  _212
REMARK   91  A    between atoms: _211  and  _214
REMARK   92  A    between atoms: _214  and  _215
REMARK   93  A    between atoms: _218  and  _220
REMARK   94  A    between atoms: _220  and  _221
REMARK   95  A    between atoms: _220  and  _223
REMARK   96  A    between atoms: _223  and  _224
REMARK   97  A    between atoms: _224  and  _225
REMARK   98  A    between atoms: _225  and  _226
REMARK   99  A    between atoms: _226  and  _227
REMARK  100  A    between atoms: _231  and  _233
REMARK  101  A    between atoms: _233  and  _234
REMARK  102  A    between atoms: _233  and  _236
REMARK  103  A    between atoms: _236  and  _237
REMARK  104  A    between atoms: _237  and  _238
REMARK  105  A    between atoms: _238  and  _239
REMARK  106  A    between atoms: _239  and  _240
REMARK  107  A    between atoms: _244  and  _246
REMARK  108  A    between atoms: _246  and  _247
REMARK  109  A    between atoms: _246  and  _249
REMARK  110  A    between atoms: _249  and  _250
REMARK  111  A    between atoms: _250  and  _251
REMARK  112  A    between atoms: _251  and  _252
REMARK  113  A    between atoms: _261  and  _263
REMARK  114  A    between atoms: _263  and  _264
REMARK  115  A    between atoms: _263  and  _266
REMARK  116  A    between atoms: _266  and  _267
REMARK  117  A    between atoms: _270  and  _272
REMARK  118  A    between atoms: _272  and  _273
REMARK  119  A    between atoms: _276  and  _278
REMARK  120  A    between atoms: _278  and  _279
REMARK  121  A    between atoms: _278  and  _281
REMARK  122  A    between atoms: _281  and  _282
REMARK  123  A    between atoms: _282  and  _283
REMARK  124  A    between atoms: _288  and  _290
REMARK  125  A    between atoms: _290  and  _291
REMARK  126  A    between atoms: _290  and  _293
REMARK  127  A    between atoms: _293  and  _294
REMARK  128  A    between atoms: _294  and  _295
REMARK  129  A    between atoms: _298  and  _300
REMARK  130  A    between atoms: _300  and  _301
REMARK  131  A    between atoms: _303  and  _305
REMARK  132  A    between atoms: _305  and  _306
REMARK  133  A    between atoms: _305  and  _308
REMARK  134  A    between atoms: _310  and  _312
REMARK  135  A    between atoms: _312  and  _313
REMARK  136  A    between atoms: _312  and  _315
REMARK  137  A    between atoms: _315  and  _316
REMARK  138  A    between atoms: _319  and  _321
REMARK  139  A    between atoms: _321  and  _322
REMARK  140  A    between atoms: _321  and  _324
REMARK  141  A    between atoms: _327  and  _329
REMARK  142  A    between atoms: _329  and  _330
REMARK  143  A    between atoms: _333  and  _335
REMARK  144  A    between atoms: _335  and  _336
REMARK  145  A    between atoms: _335  and  _338
REMARK  146  A    between atoms: _338  and  _339
REMARK  147  A    between atoms: _341  and  _343
REMARK  148  A    between atoms: _343  and  _344
REMARK  149  A    between atoms: _343  and  _346
REMARK  150  A    between atoms: _346  and  _347
REMARK  151  A    between atoms: _350  and  _352
REMARK  152  A    between atoms: _352  and  _353
REMARK  153  A    between atoms: _352  and  _355
REMARK  154  A    between atoms: _355  and  _356
REMARK  155  A    between atoms: _361  and  _363
REMARK  156  A    between atoms: _363  and  _364
REMARK  157  A    between atoms: _363  and  _366
REMARK  158  A    between atoms: _366  and  _367
REMARK  159  A    between atoms: _367  and  _368
REMARK  160  A    between atoms: _368  and  _369
REMARK  161  A    between atoms: _378  and  _380
REMARK  162  A    between atoms: _380  and  _381
REMARK  163  A    between atoms: _383  and  _385
REMARK  164  A    between atoms: _385  and  _386
REMARK  165  A    between atoms: _385  and  _388
REMARK  166  A    between atoms: _391  and  _393
REMARK  167  A    between atoms: _393  and  _394
REMARK  168  A    between atoms: _393  and  _396
REMARK  169  A    between atoms: _396  and  _397
REMARK  170  A    between atoms: _400  and  _402
REMARK  171  A    between atoms: _402  and  _403
REMARK  172  A    between atoms: _402  and  _405
REMARK  173  A    between atoms: _405  and  _406
REMARK  174  A    between atoms: _406  and  _407
REMARK  175  A    between atoms: _407  and  _408
REMARK  176  A    between atoms: _408  and  _409
REMARK  177  A    between atoms: _413  and  _415
REMARK  178  A    between atoms: _415  and  _416
REMARK  179  A    between atoms: _415  and  _418
REMARK  180  A    between atoms: _418  and  _419
REMARK  181  A    between atoms: _419  and  _420
REMARK  182  A    between atoms: _420  and  _421
REMARK  183  A    between atoms: _421  and  _422
REMARK  184  A    between atoms: _426  and  _428
REMARK  185  A    between atoms: _428  and  _429
REMARK  186  A    between atoms: _428  and  _431
REMARK  187  A    between atoms: _431  and  _432
REMARK  188  A    between atoms: _437  and  _439
REMARK  189  A    between atoms: _439  and  _440
REMARK  190  A    between atoms: _439  and  _442
REMARK  191  A    between atoms: _442  and  _443
REMARK  192  A    between atoms: _448  and  _450
REMARK  193  A    between atoms: _450  and  _451
REMARK  194  A    between atoms: _454  and  _456
REMARK  195  A    between atoms: _456  and  _457
REMARK  196  A    between atoms: _456  and  _459
REMARK  197  A    between atoms: _459  and  _460
REMARK  198  A    between atoms: _465  and  _467
REMARK  199  A    between atoms: _467  and  _468
REMARK  200  A    between atoms: _471  and  _473
REMARK  201  A    between atoms: _473  and  _474
REMARK  202  A    between atoms: _477  and  _479
REMARK  203  A    between atoms: _479  and  _480
REMARK  204  A    between atoms: _479  and  _482
REMARK  205  A    between atoms: _482  and  _483
REMARK  206  A    between atoms: _488  and  _490
REMARK  207  A    between atoms: _490  and  _491
REMARK  208  A    between atoms: _490  and  _493
REMARK  209  A    between atoms: _493  and  _494
REMARK  210  A    between atoms: _497  and  _499
REMARK  211  A    between atoms: _499  and  _500
REMARK  212  A    between atoms: _502  and  _504
REMARK  213  A    between atoms: _504  and  _505
REMARK  214  A    between atoms: _504  and  _507
REMARK  215  A    between atoms: _507  and  _508
REMARK  216  A    between atoms: _508  and  _509
REMARK  217  A    between atoms: _512  and  _514
REMARK  218  A    between atoms: _514  and  _515
REMARK  219  A    between atoms: _514  and  _517
REMARK  220  A    between atoms: _517  and  _518
REMARK  221  A    between atoms: _521  and  _523
REMARK  222  A    between atoms: _523  and  _524
REMARK  223  A    between atoms: _523  and  _526
REMARK  224  A    between atoms: _526  and  _527
REMARK  225  A    between atoms: _529  and  _531
REMARK  226  A    between atoms: _531  and  _532
REMARK  227  A    between atoms: _531  and  _534
REMARK  228  A    between atoms: _534  and  _535
REMARK  229  A    between atoms: _538  and  _540
REMARK  230  A    between atoms: _540  and  _541
REMARK  231  A    between atoms: _540  and  _543
REMARK  232  A    between atoms: _543  and  _544
REMARK  233  A    between atoms: _544  and  _545
REMARK  234  A    between atoms: _547  and  _549
REMARK  235  A    between atoms: _549  and  _550
REMARK  236  A    between atoms: _553  and  _555
REMARK  237  A    between atoms: _555  and  _556
REMARK  238  A    between atoms: _559  and  _561
REMARK  239  A    between atoms: _561  and  _562
REMARK  240  A    between atoms: _561  and  _564
REMARK  241  A    between atoms: _564  and  _565
REMARK  242  A    between atoms: _568  and  _570
REMARK  243  A    between atoms: _570  and  _571
REMARK  244  A    between atoms: _574  and  _576
REMARK  245  A    between atoms: _576  and  _577
REMARK  246  A    between atoms: _580  and  _582
REMARK  247  A    between atoms: _582  and  _583
REMARK  248  A    between atoms: _585  and  _587
REMARK  249  A    between atoms: _587  and  _588
REMARK  250  A    between atoms: _587  and  _590
REMARK  251  A    between atoms: _590  and  _591
REMARK                            x       y       z     vdW  Elec       q    Type
REMARK                         _______ _______ _______ _____ _____    ______ ____
ROOT
ATOM      1  O   HOH     1      17.449  26.852  13.661  0.00  0.00    +0.000 OA
ENDROOT
TORSDOF 0
REMARK  Name = ../refined-set-2016/3cda/3cda_pocket.pdb
REMARK  251 active torsions:
REMARK  status: ('A' for Active; 'I' for Inactive)
REMARK    1  A    between atoms: _1  and  _3
REMARK    2  A    between atoms: _3  and  _4
REMARK    3  A    between atoms: _3  and  _6
REMARK    4  A    between atoms: _6  and  _7
REMARK    5  A    between atoms: _12  and  _13
REMARK    6  A    between atoms: _15  and  _17
REMARK    7  A    between atoms: _17  and  _18
REMARK    8  A    between atoms: _17  and  _20
REMARK    9  A    between atoms: _20  and  _21
REMARK   10  A    between atoms: _21  and  _22
REMARK   11  A    between atoms: _25  and  _27
REMARK   12  A    between atoms: _27  and  _28
REMARK   13  A    between atoms: _27  and  _30
REMARK   14  A    between atoms: _30  and  _31
REMARK   15  A    between atoms: _34  and  _36
REMARK   16  A    between atoms: _36  and  _37
REMARK   17  A    between atoms: _36  and  _39
REMARK   18  A    between atoms: _39  and  _40
REMARK   19  A    between atoms: _40  and  _41
REMARK   20  A    between atoms: _41  and  _42
REMARK   21  A    between atoms: _51  and  _53
REMARK   22  A    between atoms: _53  and  _54
REMARK   23  A    between atoms: _57  and  _58
REMARK   24  A    between atoms: _63  and  _65
REMARK   25  A    between atoms: _65  and  _66
REMARK   26  A    between atoms: _65  and  _68
REMARK   27  A    between atoms: _68  and  _69
REMARK   28  A    between atoms: _69  and  _70
REMARK   29  A    between atoms: _72  and  _74
REMARK   30  A    between atoms: _74  and  _75
REMARK   31  A    between atoms: _74  and  _77
REMARK   32  A    between atoms: _77  and  _78
REMARK   33  A    between atoms: _78  and  _79
REMARK   34  A    between atoms: _81  and  _83
REMARK   35  A    between atoms: _83  and  _84
REMARK   36  A    between atoms: _83  and  _86
REMARK   37  A    between atoms: _86  and  _87
REMARK   38  A    between atoms: _92  and  _94
REMARK   39  A    between atoms: _94  and  _95
REMARK   40  A    between atoms: _94  and  _97
REMARK   41  A    between atoms: _97  and  _98
REMARK   42  A    between atoms: _101  and  _103
REMARK   43  A    between atoms: _103  and  _104
REMARK   44  A    between atoms: _103  and  _106
REMARK   45  A    between atoms: _106  and  _107
REMARK   46  A    between atoms: _109  and  _111
REMARK   47  A    between atoms: _111  and  _112
REMARK   48  A    between atoms: _111  and  _114
REMARK   49  A    between atoms: _114  and  _115
REMARK   50  A    between atoms: _115  and  _116
REMARK   51  A    between atoms: _116  and  _117
REMARK   52  A    between atoms: _117  and  _118
REMARK   53  A    between atoms: _122  and  _124
REMARK   54  A    between atoms: _124  and  _125
REMARK   55  A    between atoms: _124  and  _127
REMARK   56  A    between atoms: _127  and  _128
REMARK   57  A    between atoms: _131  and  _133
REMARK   58  A    between atoms: _133  and  _134
REMARK   59  A    between atoms: _133  and  _136
REMARK   60  A    between atoms: _136  and  _137
REMARK   61  A    between atoms: _137  and  _138
REMARK   62  A    between atoms: _141  and  _143
REMARK   63  A    between atoms: _143  and  _144
REMARK   64  A    between atoms: _147  and  _149
REMARK   65  A    between atoms: _149  and  _150
REMARK   66  A    between atoms: _149  and  _152
REMARK   67  A    between atoms: _155  and  _157
REMARK   68  A    between atoms: _157  and  _158
REMARK   69  A    between atoms: _157  and  _160
REMARK   70  A    between atoms: _160  and  _161
REMARK   71  A    between atoms: _163  and  _165
REMARK   72  A    between atoms: _165  and  _166
REMARK   73  A    between atoms: _168  and  _170
REMARK   74  A    between atoms: _170  and  _171
REMARK   75  A    between atoms: _170  and  _173
REMARK   76  A    between atoms: _173  and  _174
REMARK   77  A    between atoms: _179  and  _181
REMARK   78  A    between atoms: _181  and  _182
REMARK   79  A    between atoms: _181  and  _184
REMARK   80  A    between atoms: _184  and  _185
REMARK   81  A    between atoms: _190  and  _191
REMARK   82  A    between atoms: _193  and  _195
REMARK   83  A    between atoms: _195  and  _196
REMARK   84  A    between atoms: _195  and  _198
REMARK   85  A    between atoms: _200  and  _202
REMARK   86  A    between atoms: _202  and  _203
REMARK   87  A    between atoms: _202  and  _205
REMARK   88  A    between atoms: _205  and  _206
REMARK   89  A    between atoms: _209  and  _211
REMARK   90  A    between atoms: _211  and  _212
REMARK   91  A    between atoms: _211  and  _214
REMARK   92  A    between atoms: _214  and  _215
REMARK   93  A    between atoms: _218  and  _220
REMARK   94  A    between atoms: _220  and  _221
REMARK   95  A    between atoms: _220  and  _223
REMARK   96  A    between atoms: _223  and  _224
REMARK   97  A    between atoms: _224  and  _225
REMARK   98  A    between atoms: _225  and  _226
REMARK   99  A    between atoms: _226  and  _227
REMARK  100  A    between atoms: _231  and  _233
REMARK  101  A    between atoms: _233  and  _234
REMARK  102  A    between atoms: _233  and  _236
REMARK  103  A    between atoms: _236  and  _237
REMARK  104  A    between atoms: _237  and  _238
REMARK  105  A    between atoms: _238  and  _239
REMARK  106  A    between atoms: _239  and  _240
REMARK  107  A    between atoms: _244  and  _246
REMARK  108  A    between atoms: _246  and  _247
REMARK  109  A    between atoms: _246  and  _249
REMARK  110  A    between atoms: _249  and  _250
REMARK  111  A    between atoms: _250  and  _251
REMARK  112  A    between atoms: _251  and  _252
REMARK  113  A    between atoms: _261  and  _263
REMARK  114  A    between atoms: _263  and  _264
REMARK  115  A    between atoms: _263  and  _266
REMARK  116  A    between atoms: _266  and  _267
REMARK  117  A    between atoms: _270  and  _272
REMARK  118  A    between atoms: _272  and  _273
REMARK  119  A    between atoms: _276  and  _278
REMARK  120  A    between atoms: _278  and  _279
REMARK  121  A    between atoms: _278  and  _281
REMARK  122  A    between atoms: _281  and  _282
REMARK  123  A    between atoms: _282  and  _283
REMARK  124  A    between atoms: _288  and  _290
REMARK  125  A    between atoms: _290  and  _291
REMARK  126  A    between atoms: _290  and  _293
REMARK  127  A    between atoms: _293  and  _294
REMARK  128  A    between atoms: _294  and  _295
REMARK  129  A    between atoms: _298  and  _300
REMARK  130  A    between atoms: _300  and  _301
REMARK  131  A    between atoms: _303  and  _305
REMARK  132  A    between atoms: _305  and  _306
REMARK  133  A    between atoms: _305  and  _308
REMARK  134  A    between atoms: _310  and  _312
REMARK  135  A    between atoms: _312  and  _313
REMARK  136  A    between atoms: _312  and  _315
REMARK  137  A    between atoms: _315  and  _316
REMARK  138  A    between atoms: _319  and  _321
REMARK  139  A    between atoms: _321  and  _322
REMARK  140  A    between atoms: _321  and  _324
REMARK  141  A    between atoms: _327  and  _329
REMARK  142  A    between atoms: _329  and  _330
REMARK  143  A    between atoms: _333  and  _335
REMARK  144  A    between atoms: _335  and  _336
REMARK  145  A    between atoms: _335  and  _338
REMARK  146  A    between atoms: _338  and  _339
REMARK  147  A    between atoms: _341  and  _343
REMARK  148  A    between atoms: _343  and  _344
REMARK  149  A    between atoms: _343  and  _346
REMARK  150  A    between atoms: _346  and  _347
REMARK  151  A    between atoms: _350  and  _352
REMARK  152  A    between atoms: _352  and  _353
REMARK  153  A    between atoms: _352  and  _355
REMARK  154  A    between atoms: _355  and  _356
REMARK  155  A    between atoms: _361  and  _363
REMARK  156  A    between atoms: _363  and  _364
REMARK  157  A    between atoms: _363  and  _366
REMARK  158  A    between atoms: _366  and  _367
REMARK  159  A    between atoms: _367  and  _368
REMARK  160  A    between atoms: _368  and  _369
REMARK  161  A    between atoms: _378  and  _380
REMARK  162  A    between atoms: _380  and  _381
REMARK  163  A    between atoms: _383  and  _385
REMARK  164  A    between atoms: _385  and  _386
REMARK  165  A    between atoms: _385  and  _388
REMARK  166  A    between atoms: _391  and  _393
REMARK  167  A    between atoms: _393  and  _394
REMARK  168  A    between atoms: _393  and  _396
REMARK  169  A    between atoms: _396  and  _397
REMARK  170  A    between atoms: _400  and  _402
REMARK  171  A    between atoms: _402  and  _403
REMARK  172  A    between atoms: _402  and  _405
REMARK  173  A    between atoms: _405  and  _406
REMARK  174  A    between atoms: _406  and  _407
REMARK  175  A    between atoms: _407  and  _408
REMARK  176  A    between atoms: _408  and  _409
REMARK  177  A    between atoms: _413  and  _415
REMARK  178  A    between atoms: _415  and  _416
REMARK  179  A    between atoms: _415  and  _418
REMARK  180  A    between atoms: _418  and  _419
REMARK  181  A    between atoms: _419  and  _420
REMARK  182  A    between atoms: _420  and  _421
REMARK  183  A    between atoms: _421  and  _422
REMARK  184  A    between atoms: _426  and  _428
REMARK  185  A    between atoms: _428  and  _429
REMARK  186  A    between atoms: _428  and  _431
REMARK  187  A    between atoms: _431  and  _432
REMARK  188  A    between atoms: _437  and  _439
REMARK  189  A    between atoms: _439  and  _440
REMARK  190  A    between atoms: _439  and  _442
REMARK  191  A    between atoms: _442  and  _443
REMARK  192  A    between atoms: _448  and  _450
REMARK  193  A    between atoms: _450  and  _451
REMARK  194  A    between atoms: _454  and  _456
REMARK  195  A    between atoms: _456  and  _457
REMARK  196  A    between atoms: _456  and  _459
REMARK  197  A    between atoms: _459  and  _460
REMARK  198  A    between atoms: _465  and  _467
REMARK  199  A    between atoms: _467  and  _468
REMARK  200  A    between atoms: _471  and  _473
REMARK  201  A    between atoms: _473  and  _474
REMARK  202  A    between atoms: _477  and  _479
REMARK  203  A    between atoms: _479  and  _480
REMARK  204  A    between atoms: _479  and  _482
REMARK  205  A    between atoms: _482  and  _483
REMARK  206  A    between atoms: _488  and  _490
REMARK  207  A    between atoms: _490  and  _491
REMARK  208  A    between atoms: _490  and  _493
REMARK  209  A    between atoms: _493  and  _494
REMARK  210  A    between atoms: _497  and  _499
REMARK  211  A    between atoms: _499  and  _500
REMARK  212  A    between atoms: _502  and  _504
REMARK  213  A    between atoms: _504  and  _505
REMARK  214  A    between atoms: _504  and  _507
REMARK  215  A    between atoms: _507  and  _508
REMARK  216  A    between atoms: _508  and  _509
REMARK  217  A    between atoms: _512  and  _514
REMARK  218  A    between atoms: _514  and  _515
REMARK  219  A    between atoms: _514  and  _517
REMARK  220  A    between atoms: _517  and  _518
REMARK  221  A    between atoms: _521  and  _523
REMARK  222  A    between atoms: _523  and  _524
REMARK  223  A    between atoms: _523  and  _526
REMARK  224  A    between atoms: _526  and  _527
REMARK  225  A    between atoms: _529  and  _531
REMARK  226  A    between atoms: _531  and  _532
REMARK  227  A    between atoms: _531  and  _534
REMARK  228  A    between atoms: _534  and  _535
REMARK  229  A    between atoms: _538  and  _540
REMARK  230  A    between atoms: _540  and  _541
REMARK  231  A    between atoms: _540  and  _543
REMARK  232  A    between atoms: _543  and  _544
REMARK  233  A    between atoms: _544  and  _545
REMARK  234  A    between atoms: _547  and  _549
REMARK  235  A    between atoms: _549  and  _550
REMARK  236  A    between atoms: _553  and  _555
REMARK  237  A    between atoms: _555  and  _556
REMARK  238  A    between atoms: _559  and  _561
REMARK  239  A    between atoms: _561  and  _562
REMARK  240  A    between atoms: _561  and  _564
REMARK  241  A    between atoms: _564  and  _565
REMARK  242  A    between atoms: _568  and  _570
REMARK  243  A    between atoms: _570  and  _571
REMARK  244  A    between atoms: _574  and  _576
REMARK  245  A    between atoms: _576  and  _577
REMARK  246  A    between atoms: _580  and  _582
REMARK  247  A    between atoms: _582  and  _583
REMARK  248  A    between atoms: _585  and  _587
REMARK  249  A    between atoms: _587  and  _588
REMARK  250  A    between atoms: _587  and  _590
REMARK  251  A    between atoms: _590  and  _591
REMARK                            x       y       z     vdW  Elec       q    Type
REMARK                         _______ _______ _______ _____ _____    ______ ____
ROOT
ATOM      1  O   HOH     1      19.418  28.048  14.408  0.00  0.00    +0.000 OA
ENDROOT
TORSDOF 0
REMARK  Name = ../refined-set-2016/3cda/3cda_pocket.pdb
REMARK  251 active torsions:
REMARK  status: ('A' for Active; 'I' for Inactive)
REMARK    1  A    between atoms: _1  and  _3
REMARK    2  A    between atoms: _3  and  _4
REMARK    3  A    between atoms: _3  and  _6
REMARK    4  A    between atoms: _6  and  _7
REMARK    5  A    between atoms: _12  and  _13
REMARK    6  A    between atoms: _15  and  _17
REMARK    7  A    between atoms: _17  and  _18
REMARK    8  A    between atoms: _17  and  _20
REMARK    9  A    between atoms: _20  and  _21
REMARK   10  A    between atoms: _21  and  _22
REMARK   11  A    between atoms: _25  and  _27
REMARK   12  A    between atoms: _27  and  _28
REMARK   13  A    between atoms: _27  and  _30
REMARK   14  A    between atoms: _30  and  _31
REMARK   15  A    between atoms: _34  and  _36
REMARK   16  A    between atoms: _36  and  _37
REMARK   17  A    between atoms: _36  and  _39
REMARK   18  A    between atoms: _39  and  _40
REMARK   19  A    between atoms: _40  and  _41
REMARK   20  A    between atoms: _41  and  _42
REMARK   21  A    between atoms: _51  and  _53
REMARK   22  A    between atoms: _53  and  _54
REMARK   23  A    between atoms: _57  and  _58
REMARK   24  A    between atoms: _63  and  _65
REMARK   25  A    between atoms: _65  and  _66
REMARK   26  A    between atoms: _65  and  _68
REMARK   27  A    between atoms: _68  and  _69
REMARK   28  A    between atoms: _69  and  _70
REMARK   29  A    between atoms: _72  and  _74
REMARK   30  A    between atoms: _74  and  _75
REMARK   31  A    between atoms: _74  and  _77
REMARK   32  A    between atoms: _77  and  _78
REMARK   33  A    between atoms: _78  and  _79
REMARK   34  A    between atoms: _81  and  _83
REMARK   35  A    between atoms: _83  and  _84
REMARK   36  A    between atoms: _83  and  _86
REMARK   37  A    between atoms: _86  and  _87
REMARK   38  A    between atoms: _92  and  _94
REMARK   39  A    between atoms: _94  and  _95
REMARK   40  A    between atoms: _94  and  _97
REMARK   41  A    between atoms: _97  and  _98
REMARK   42  A    between atoms: _101  and  _103
REMARK   43  A    between atoms: _103  and  _104
REMARK   44  A    between atoms: _103  and  _106
REMARK   45  A    between atoms: _106  and  _107
REMARK   46  A    between atoms: _109  and  _111
REMARK   47  A    between atoms: _111  and  _112
REMARK   48  A    between atoms: _111  and  _114
REMARK   49  A    between atoms: _114  and  _115
REMARK   50  A    between atoms: _115  and  _116
REMARK   51  A    between atoms: _116  and  _117
REMARK   52  A    between atoms: _117  and  _118
REMARK   53  A    between atoms: _122  and  _124
REMARK   54  A    between atoms: _124  and  _125
REMARK   55  A    between atoms: _124  and  _127
REMARK   56  A    between atoms: _127  and  _128
REMARK   57  A    between atoms: _131  and  _133
REMARK   58  A    between atoms: _133  and  _134
REMARK   59  A    between atoms: _133  and  _136
REMARK   60  A    between atoms: _136  and  _137
REMARK   61  A    between atoms: _137  and  _138
REMARK   62  A    between atoms: _141  and  _143
REMARK   63  A    between atoms: _143  and  _144
REMARK   64  A    between atoms: _147  and  _149
REMARK   65  A    between atoms: _149  and  _150
REMARK   66  A    between atoms: _149  and  _152
REMARK   67  A    between atoms: _155  and  _157
REMARK   68  A    between atoms: _157  and  _158
REMARK   69  A    between atoms: _157  and  _160
REMARK   70  A    between atoms: _160  and  _161
REMARK   71  A    between atoms: _163  and  _165
REMARK   72  A    between atoms: _165  and  _166
REMARK   73  A    between atoms: _168  and  _170
REMARK   74  A    between atoms: _170  and  _171
REMARK   75  A    between atoms: _170  and  _173
REMARK   76  A    between atoms: _173  and  _174
REMARK   77  A    between atoms: _179  and  _181
REMARK   78  A    between atoms: _181  and  _182
REMARK   79  A    between atoms: _181  and  _184
REMARK   80  A    between atoms: _184  and  _185
REMARK   81  A    between atoms: _190  and  _191
REMARK   82  A    between atoms: _193  and  _195
REMARK   83  A    between atoms: _195  and  _196
REMARK   84  A    between atoms: _195  and  _198
REMARK   85  A    between atoms: _200  and  _202
REMARK   86  A    between atoms: _202  and  _203
REMARK   87  A    between atoms: _202  and  _205
REMARK   88  A    between atoms: _205  and  _206
REMARK   89  A    between atoms: _209  and  _211
REMARK   90  A    between atoms: _211  and  _212
REMARK   91  A    between atoms: _211  and  _214
REMARK   92  A    between atoms: _214  and  _215
REMARK   93  A    between atoms: _218  and  _220
REMARK   94  A    between atoms: _220  and  _221
REMARK   95  A    between atoms: _220  and  _223
REMARK   96  A    between atoms: _223  and  _224
REMARK   97  A    between atoms: _224  and  _225
REMARK   98  A    between atoms: _225  and  _226
REMARK   99  A    between atoms: _226  and  _227
REMARK  100  A    between atoms: _231  and  _233
REMARK  101  A    between atoms: _233  and  _234
REMARK  102  A    between atoms: _233  and  _236
REMARK  103  A    between atoms: _236  and  _237
REMARK  104  A    between atoms: _237  and  _238
REMARK  105  A    between atoms: _238  and  _239
REMARK  106  A    between atoms: _239  and  _240
REMARK  107  A    between atoms: _244  and  _246
REMARK  108  A    between atoms: _246  and  _247
REMARK  109  A    between atoms: _246  and  _249
REMARK  110  A    between atoms: _249  and  _250
REMARK  111  A    between atoms: _250  and  _251
REMARK  112  A    between atoms: _251  and  _252
REMARK  113  A    between atoms: _261  and  _263
REMARK  114  A    between atoms: _263  and  _264
REMARK  115  A    between atoms: _263  and  _266
REMARK  116  A    between atoms: _266  and  _267
REMARK  117  A    between atoms: _270  and  _272
REMARK  118  A    between atoms: _272  and  _273
REMARK  119  A    between atoms: _276  and  _278
REMARK  120  A    between atoms: _278  and  _279
REMARK  121  A    between atoms: _278  and  _281
REMARK  122  A    between atoms: _281  and  _282
REMARK  123  A    between atoms: _282  and  _283
REMARK  124  A    between atoms: _288  and  _290
REMARK  125  A    between atoms: _290  and  _291
REMARK  126  A    between atoms: _290  and  _293
REMARK  127  A    between atoms: _293  and  _294
REMARK  128  A    between atoms: _294  and  _295
REMARK  129  A    between atoms: _298  and  _300
REMARK  130  A    between atoms: _300  and  _301
REMARK  131  A    between atoms: _303  and  _305
REMARK  132  A    between atoms: _305  and  _306
REMARK  133  A    between atoms: _305  and  _308
REMARK  134  A    between atoms: _310  and  _312
REMARK  135  A    between atoms: _312  and  _313
REMARK  136  A    between atoms: _312  and  _315
REMARK  137  A    between atoms: _315  and  _316
REMARK  138  A    between atoms: _319  and  _321
REMARK  139  A    between atoms: _321  and  _322
REMARK  140  A    between atoms: _321  and  _324
REMARK  141  A    between atoms: _327  and  _329
REMARK  142  A    between atoms: _329  and  _330
REMARK  143  A    between atoms: _333  and  _335
REMARK  144  A    between atoms: _335  and  _336
REMARK  145  A    between atoms: _335  and  _338
REMARK  146  A    between atoms: _338  and  _339
REMARK  147  A    between atoms: _341  and  _343
REMARK  148  A    between atoms: _343  and  _344
REMARK  149  A    between atoms: _343  and  _346
REMARK  150  A    between atoms: _346  and  _347
REMARK  151  A    between atoms: _350  and  _352
REMARK  152  A    between atoms: _352  and  _353
REMARK  153  A    between atoms: _352  and  _355
REMARK  154  A    between atoms: _355  and  _356
REMARK  155  A    between atoms: _361  and  _363
REMARK  156  A    between atoms: _363  and  _364
REMARK  157  A    between atoms: _363  and  _366
REMARK  158  A    between atoms: _366  and  _367
REMARK  159  A    between atoms: _367  and  _368
REMARK  160  A    between atoms: _368  and  _369
REMARK  161  A    between atoms: _378  and  _380
REMARK  162  A    between atoms: _380  and  _381
REMARK  163  A    between atoms: _383  and  _385
REMARK  164  A    between atoms: _385  and  _386
REMARK  165  A    between atoms: _385  and  _388
REMARK  166  A    between atoms: _391  and  _393
REMARK  167  A    between atoms: _393  and  _394
REMARK  168  A    between atoms: _393  and  _396
REMARK  169  A    between atoms: _396  and  _397
REMARK  170  A    between atoms: _400  and  _402
REMARK  171  A    between atoms: _402  and  _403
REMARK  172  A    between atoms: _402  and  _405
REMARK  173  A    between atoms: _405  and  _406
REMARK  174  A    between atoms: _406  and  _407
REMARK  175  A    between atoms: _407  and  _408
REMARK  176  A    between atoms: _408  and  _409
REMARK  177  A    between atoms: _413  and  _415
REMARK  178  A    between atoms: _415  and  _416
REMARK  179  A    between atoms: _415  and  _418
REMARK  180  A    between atoms: _418  and  _419
REMARK  181  A    between atoms: _419  and  _420
REMARK  182  A    between atoms: _420  and  _421
REMARK  183  A    between atoms: _421  and  _422
REMARK  184  A    between atoms: _426  and  _428
REMARK  185  A    between atoms: _428  and  _429
REMARK  186  A    between atoms: _428  and  _431
REMARK  187  A    between atoms: _431  and  _432
REMARK  188  A    between atoms: _437  and  _439
REMARK  189  A    between atoms: _439  and  _440
REMARK  190  A    between atoms: _439  and  _442
REMARK  191  A    between atoms: _442  and  _443
REMARK  192  A    between atoms: _448  and  _450
REMARK  193  A    between atoms: _450  and  _451
REMARK  194  A    between atoms: _454  and  _456
REMARK  195  A    between atoms: _456  and  _457
REMARK  196  A    between atoms: _456  and  _459
REMARK  197  A    between atoms: _459  and  _460
REMARK  198  A    between atoms: _465  and  _467
REMARK  199  A    between atoms: _467  and  _468
REMARK  200  A    between atoms: _471  and  _473
REMARK  201  A    between atoms: _473  and  _474
REMARK  202  A    between atoms: _477  and  _479
REMARK  203  A    between atoms: _479  and  _480
REMARK  204  A    between atoms: _479  and  _482
REMARK  205  A    between atoms: _482  and  _483
REMARK  206  A    between atoms: _488  and  _490
REMARK  207  A    between atoms: _490  and  _491
REMARK  208  A    between atoms: _490  and  _493
REMARK  209  A    between atoms: _493  and  _494
REMARK  210  A    between atoms: _497  and  _499
REMARK  211  A    between atoms: _499  and  _500
REMARK  212  A    between atoms: _502  and  _504
REMARK  213  A    between atoms: _504  and  _505
REMARK  214  A    between atoms: _504  and  _507
REMARK  215  A    between atoms: _507  and  _508
REMARK  216  A    between atoms: _508  and  _509
REMARK  217  A    between atoms: _512  and  _514
REMARK  218  A    between atoms: _514  and  _515
REMARK  219  A    between atoms: _514  and  _517
REMARK  220  A    between atoms: _517  and  _518
REMARK  221  A    between atoms: _521  and  _523
REMARK  222  A    between atoms: _523  and  _524
REMARK  223  A    between atoms: _523  and  _526
REMARK  224  A    between atoms: _526  and  _527
REMARK  225  A    between atoms: _529  and  _531
REMARK  226  A    between atoms: _531  and  _532
REMARK  227  A    between atoms: _531  and  _534
REMARK  228  A    between atoms: _534  and  _535
REMARK  229  A    between atoms: _538  and  _540
REMARK  230  A    between atoms: _540  and  _541
REMARK  231  A    between atoms: _540  and  _543
REMARK  232  A    between atoms: _543  and  _544
REMARK  233  A    between atoms: _544  and  _545
REMARK  234  A    between atoms: _547  and  _549
REMARK  235  A    between atoms: _549  and  _550
REMARK  236  A    between atoms: _553  and  _555
REMARK  237  A    between atoms: _555  and  _556
REMARK  238  A    between atoms: _559  and  _561
REMARK  239  A    between atoms: _561  and  _562
REMARK  240  A    between atoms: _561  and  _564
REMARK  241  A    between atoms: _564  and  _565
REMARK  242  A    between atoms: _568  and  _570
REMARK  243  A    between atoms: _570  and  _571
REMARK  244  A    between atoms: _574  and  _576
REMARK  245  A    between atoms: _576  and  _577
REMARK  246  A    between atoms: _580  and  _582
REMARK  247  A    between atoms: _582  and  _583
REMARK  248  A    between atoms: _585  and  _587
REMARK  249  A    between atoms: _587  and  _588
REMARK  250  A    between atoms: _587  and  _590
REMARK  251  A    between atoms: _590  and  _591
REMARK                            x       y       z     vdW  Elec       q    Type
REMARK                         _______ _______ _______ _____ _____    ______ ____
ROOT
ATOM      1  O   HOH     1      11.725  21.315  11.413  0.00  0.00    +0.000 OA
ENDROOT
TORSDOF 0
REMARK  Name = ../refined-set-2016/3cda/3cda_pocket.pdb
REMARK  251 active torsions:
REMARK  status: ('A' for Active; 'I' for Inactive)
REMARK    1  A    between atoms: _1  and  _3
REMARK    2  A    between atoms: _3  and  _4
REMARK    3  A    between atoms: _3  and  _6
REMARK    4  A    between atoms: _6  and  _7
REMARK    5  A    between atoms: _12  and  _13
REMARK    6  A    between atoms: _15  and  _17
REMARK    7  A    between atoms: _17  and  _18
REMARK    8  A    between atoms: _17  and  _20
REMARK    9  A    between atoms: _20  and  _21
REMARK   10  A    between atoms: _21  and  _22
REMARK   11  A    between atoms: _25  and  _27
REMARK   12  A    between atoms: _27  and  _28
REMARK   13  A    between atoms: _27  and  _30
REMARK   14  A    between atoms: _30  and  _31
REMARK   15  A    between atoms: _34  and  _36
REMARK   16  A    between atoms: _36  and  _37
REMARK   17  A    between atoms: _36  and  _39
REMARK   18  A    between atoms: _39  and  _40
REMARK   19  A    between atoms: _40  and  _41
REMARK   20  A    between atoms: _41  and  _42
REMARK   21  A    between atoms: _51  and  _53
REMARK   22  A    between atoms: _53  and  _54
REMARK   23  A    between atoms: _57  and  _58
REMARK   24  A    between atoms: _63  and  _65
REMARK   25  A    between atoms: _65  and  _66
REMARK   26  A    between atoms: _65  and  _68
REMARK   27  A    between atoms: _68  and  _69
REMARK   28  A    between atoms: _69  and  _70
REMARK   29  A    between atoms: _72  and  _74
REMARK   30  A    between atoms: _74  and  _75
REMARK   31  A    between atoms: _74  and  _77
REMARK   32  A    between atoms: _77  and  _78
REMARK   33  A    between atoms: _78  and  _79
REMARK   34  A    between atoms: _81  and  _83
REMARK   35  A    between atoms: _83  and  _84
REMARK   36  A    between atoms: _83  and  _86
REMARK   37  A    between atoms: _86  and  _87
REMARK   38  A    between atoms: _92  and  _94
REMARK   39  A    between atoms: _94  and  _95
REMARK   40  A    between atoms: _94  and  _97
REMARK   41  A    between atoms: _97  and  _98
REMARK   42  A    between atoms: _101  and  _103
REMARK   43  A    between atoms: _103  and  _104
REMARK   44  A    between atoms: _103  and  _106
REMARK   45  A    between atoms: _106  and  _107
REMARK   46  A    between atoms: _109  and  _111
REMARK   47  A    between atoms: _111  and  _112
REMARK   48  A    between atoms: _111  and  _114
REMARK   49  A    between atoms: _114  and  _115
REMARK   50  A    between atoms: _115  and  _116
REMARK   51  A    between atoms: _116  and  _117
REMARK   52  A    between atoms: _117  and  _118
REMARK   53  A    between atoms: _122  and  _124
REMARK   54  A    between atoms: _124  and  _125
REMARK   55  A    between atoms: _124  and  _127
REMARK   56  A    between atoms: _127  and  _128
REMARK   57  A    between atoms: _131  and  _133
REMARK   58  A    between atoms: _133  and  _134
REMARK   59  A    between atoms: _133  and  _136
REMARK   60  A    between atoms: _136  and  _137
REMARK   61  A    between atoms: _137  and  _138
REMARK   62  A    between atoms: _141  and  _143
REMARK   63  A    between atoms: _143  and  _144
REMARK   64  A    between atoms: _147  and  _149
REMARK   65  A    between atoms: _149  and  _150
REMARK   66  A    between atoms: _149  and  _152
REMARK   67  A    between atoms: _155  and  _157
REMARK   68  A    between atoms: _157  and  _158
REMARK   69  A    between atoms: _157  and  _160
REMARK   70  A    between atoms: _160  and  _161
REMARK   71  A    between atoms: _163  and  _165
REMARK   72  A    between atoms: _165  and  _166
REMARK   73  A    between atoms: _168  and  _170
REMARK   74  A    between atoms: _170  and  _171
REMARK   75  A    between atoms: _170  and  _173
REMARK   76  A    between atoms: _173  and  _174
REMARK   77  A    between atoms: _179  and  _181
REMARK   78  A    between atoms: _181  and  _182
REMARK   79  A    between atoms: _181  and  _184
REMARK   80  A    between atoms: _184  and  _185
REMARK   81  A    between atoms: _190  and  _191
REMARK   82  A    between atoms: _193  and  _195
REMARK   83  A    between atoms: _195  and  _196
REMARK   84  A    between atoms: _195  and  _198
REMARK   85  A    between atoms: _200  and  _202
REMARK   86  A    between atoms: _202  and  _203
REMARK   87  A    between atoms: _202  and  _205
REMARK   88  A    between atoms: _205  and  _206
REMARK   89  A    between atoms: _209  and  _211
REMARK   90  A    between atoms: _211  and  _212
REMARK   91  A    between atoms: _211  and  _214
REMARK   92  A    between atoms: _214  and  _215
REMARK   93  A    between atoms: _218  and  _220
REMARK   94  A    between atoms: _220  and  _221
REMARK   95  A    between atoms: _220  and  _223
REMARK   96  A    between atoms: _223  and  _224
REMARK   97  A    between atoms: _224  and  _225
REMARK   98  A    between atoms: _225  and  _226
REMARK   99  A    between atoms: _226  and  _227
REMARK  100  A    between atoms: _231  and  _233
REMARK  101  A    between atoms: _233  and  _234
REMARK  102  A    between atoms: _233  and  _236
REMARK  103  A    between atoms: _236  and  _237
REMARK  104  A    between atoms: _237  and  _238
REMARK  105  A    between atoms: _238  and  _239
REMARK  106  A    between atoms: _239  and  _240
REMARK  107  A    between atoms: _244  and  _246
REMARK  108  A    between atoms: _246  and  _247
REMARK  109  A    between atoms: _246  and  _249
REMARK  110  A    between atoms: _249  and  _250
REMARK  111  A    between atoms: _250  and  _251
REMARK  112  A    between atoms: _251  and  _252
REMARK  113  A    between atoms: _261  and  _263
REMARK  114  A    between atoms: _263  and  _264
REMARK  115  A    between atoms: _263  and  _266
REMARK  116  A    between atoms: _266  and  _267
REMARK  117  A    between atoms: _270  and  _272
REMARK  118  A    between atoms: _272  and  _273
REMARK  119  A    between atoms: _276  and  _278
REMARK  120  A    between atoms: _278  and  _279
REMARK  121  A    between atoms: _278  and  _281
REMARK  122  A    between atoms: _281  and  _282
REMARK  123  A    between atoms: _282  and  _283
REMARK  124  A    between atoms: _288  and  _290
REMARK  125  A    between atoms: _290  and  _291
REMARK  126  A    between atoms: _290  and  _293
REMARK  127  A    between atoms: _293  and  _294
REMARK  128  A    between atoms: _294  and  _295
REMARK  129  A    between atoms: _298  and  _300
REMARK  130  A    between atoms: _300  and  _301
REMARK  131  A    between atoms: _303  and  _305
REMARK  132  A    between atoms: _305  and  _306
REMARK  133  A    between atoms: _305  and  _308
REMARK  134  A    between atoms: _310  and  _312
REMARK  135  A    between atoms: _312  and  _313
REMARK  136  A    between atoms: _312  and  _315
REMARK  137  A    between atoms: _315  and  _316
REMARK  138  A    between atoms: _319  and  _321
REMARK  139  A    between atoms: _321  and  _322
REMARK  140  A    between atoms: _321  and  _324
REMARK  141  A    between atoms: _327  and  _329
REMARK  142  A    between atoms: _329  and  _330
REMARK  143  A    between atoms: _333  and  _335
REMARK  144  A    between atoms: _335  and  _336
REMARK  145  A    between atoms: _335  and  _338
REMARK  146  A    between atoms: _338  and  _339
REMARK  147  A    between atoms: _341  and  _343
REMARK  148  A    between atoms: _343  and  _344
REMARK  149  A    between atoms: _343  and  _346
REMARK  150  A    between atoms: _346  and  _347
REMARK  151  A    between atoms: _350  and  _352
REMARK  152  A    between atoms: _352  and  _353
REMARK  153  A    between atoms: _352  and  _355
REMARK  154  A    between atoms: _355  and  _356
REMARK  155  A    between atoms: _361  and  _363
REMARK  156  A    between atoms: _363  and  _364
REMARK  157  A    between atoms: _363  and  _366
REMARK  158  A    between atoms: _366  and  _367
REMARK  159  A    between atoms: _367  and  _368
REMARK  160  A    between atoms: _368  and  _369
REMARK  161  A    between atoms: _378  and  _380
REMARK  162  A    between atoms: _380  and  _381
REMARK  163  A    between atoms: _383  and  _385
REMARK  164  A    between atoms: _385  and  _386
REMARK  165  A    between atoms: _385  and  _388
REMARK  166  A    between atoms: _391  and  _393
REMARK  167  A    between atoms: _393  and  _394
REMARK  168  A    between atoms: _393  and  _396
REMARK  169  A    between atoms: _396  and  _397
REMARK  170  A    between atoms: _400  and  _402
REMARK  171  A    between atoms: _402  and  _403
REMARK  172  A    between atoms: _402  and  _405
REMARK  173  A    between atoms: _405  and  _406
REMARK  174  A    between atoms: _406  and  _407
REMARK  175  A    between atoms: _407  and  _408
REMARK  176  A    between atoms: _408  and  _409
REMARK  177  A    between atoms: _413  and  _415
REMARK  178  A    between atoms: _415  and  _416
REMARK  179  A    between atoms: _415  and  _418
REMARK  180  A    between atoms: _418  and  _419
REMARK  181  A    between atoms: _419  and  _420
REMARK  182  A    between atoms: _420  and  _421
REMARK  183  A    between atoms: _421  and  _422
REMARK  184  A    between atoms: _426  and  _428
REMARK  185  A    between atoms: _428  and  _429
REMARK  186  A    between atoms: _428  and  _431
REMARK  187  A    between atoms: _431  and  _432
REMARK  188  A    between atoms: _437  and  _439
REMARK  189  A    between atoms: _439  and  _440
REMARK  190  A    between atoms: _439  and  _442
REMARK  191  A    between atoms: _442  and  _443
REMARK  192  A    between atoms: _448  and  _450
REMARK  193  A    between atoms: _450  and  _451
REMARK  194  A    between atoms: _454  and  _456
REMARK  195  A    between atoms: _456  and  _457
REMARK  196  A    between atoms: _456  and  _459
REMARK  197  A    between atoms: _459  and  _460
REMARK  198  A    between atoms: _465  and  _467
REMARK  199  A    between atoms: _467  and  _468
REMARK  200  A    between atoms: _471  and  _473
REMARK  201  A    between atoms: _473  and  _474
REMARK  202  A    between atoms: _477  and  _479
REMARK  203  A    between atoms: _479  and  _480
REMARK  204  A    between atoms: _479  and  _482
REMARK  205  A    between atoms: _482  and  _483
REMARK  206  A    between atoms: _488  and  _490
REMARK  207  A    between atoms: _490  and  _491
REMARK  208  A    between atoms: _490  and  _493
REMARK  209  A    between atoms: _493  and  _494
REMARK  210  A    between atoms: _497  and  _499
REMARK  211  A    between atoms: _499  and  _500
REMARK  212  A    between atoms: _502  and  _504
REMARK  213  A    between atoms: _504  and  _505
REMARK  214  A    between atoms: _504  and  _507
REMARK  215  A    between atoms: _507  and  _508
REMARK  216  A    between atoms: _508  and  _509
REMARK  217  A    between atoms: _512  and  _514
REMARK  218  A    between atoms: _514  and  _515
REMARK  219  A    between atoms: _514  and  _517
REMARK  220  A    between atoms: _517  and  _518
REMARK  221  A    between atoms: _521  and  _523
REMARK  222  A    between atoms: _523  and  _524
REMARK  223  A    between atoms: _523  and  _526
REMARK  224  A    between atoms: _526  and  _527
REMARK  225  A    between atoms: _529  and  _531
REMARK  226  A    between atoms: _531  and  _532
REMARK  227  A    between atoms: _531  and  _534
REMARK  228  A    between atoms: _534  and  _535
REMARK  229  A    between atoms: _538  and  _540
REMARK  230  A    between atoms: _540  and  _541
REMARK  231  A    between atoms: _540  and  _543
REMARK  232  A    between atoms: _543  and  _544
REMARK  233  A    between atoms: _544  and  _545
REMARK  234  A    between atoms: _547  and  _549
REMARK  235  A    between atoms: _549  and  _550
REMARK  236  A    between atoms: _553  and  _555
REMARK  237  A    between atoms: _555  and  _556
REMARK  238  A    between atoms: _559  and  _561
REMARK  239  A    between atoms: _561  and  _562
REMARK  240  A    between atoms: _561  and  _564
REMARK  241  A    between atoms: _564  and  _565
REMARK  242  A    between atoms: _568  and  _570
REMARK  243  A    between atoms: _570  and  _571
REMARK  244  A    between atoms: _574  and  _576
REMARK  245  A    between atoms: _576  and  _577
REMARK  246  A    between atoms: _580  and  _582
REMARK  247  A    between atoms: _582  and  _583
REMARK  248  A    between atoms: _585  and  _587
REMARK  249  A    between atoms: _587  and  _588
REMARK  250  A    between atoms: _587  and  _590
REMARK  251  A    between atoms: _590  and  _591
REMARK                            x       y       z     vdW  Elec       q    Type
REMARK                         _______ _______ _______ _____ _____    ______ ____
ROOT
ATOM      1  O   HOH     1      20.252  28.035   4.948  0.00  0.00    +0.000 OA
ENDROOT
TORSDOF 0
REMARK  Name = ../refined-set-2016/3cda/3cda_pocket.pdb
REMARK  251 active torsions:
REMARK  status: ('A' for Active; 'I' for Inactive)
REMARK    1  A    between atoms: _1  and  _3
REMARK    2  A    between atoms: _3  and  _4
REMARK    3  A    between atoms: _3  and  _6
REMARK    4  A    between atoms: _6  and  _7
REMARK    5  A    between atoms: _12  and  _13
REMARK    6  A    between atoms: _15  and  _17
REMARK    7  A    between atoms: _17  and  _18
REMARK    8  A    between atoms: _17  and  _20
REMARK    9  A    between atoms: _20  and  _21
REMARK   10  A    between atoms: _21  and  _22
REMARK   11  A    between atoms: _25  and  _27
REMARK   12  A    between atoms: _27  and  _28
REMARK   13  A    between atoms: _27  and  _30
REMARK   14  A    between atoms: _30  and  _31
REMARK   15  A    between atoms: _34  and  _36
REMARK   16  A    between atoms: _36  and  _37
REMARK   17  A    between atoms: _36  and  _39
REMARK   18  A    between atoms: _39  and  _40
REMARK   19  A    between atoms: _40  and  _41
REMARK   20  A    between atoms: _41  and  _42
REMARK   21  A    between atoms: _51  and  _53
REMARK   22  A    between atoms: _53  and  _54
REMARK   23  A    between atoms: _57  and  _58
REMARK   24  A    between atoms: _63  and  _65
REMARK   25  A    between atoms: _65  and  _66
REMARK   26  A    between atoms: _65  and  _68
REMARK   27  A    between atoms: _68  and  _69
REMARK   28  A    between atoms: _69  and  _70
REMARK   29  A    between atoms: _72  and  _74
REMARK   30  A    between atoms: _74  and  _75
REMARK   31  A    between atoms: _74  and  _77
REMARK   32  A    between atoms: _77  and  _78
REMARK   33  A    between atoms: _78  and  _79
REMARK   34  A    between atoms: _81  and  _83
REMARK   35  A    between atoms: _83  and  _84
REMARK   36  A    between atoms: _83  and  _86
REMARK   37  A    between atoms: _86  and  _87
REMARK   38  A    between atoms: _92  and  _94
REMARK   39  A    between atoms: _94  and  _95
REMARK   40  A    between atoms: _94  and  _97
REMARK   41  A    between atoms: _97  and  _98
REMARK   42  A    between atoms: _101  and  _103
REMARK   43  A    between atoms: _103  and  _104
REMARK   44  A    between atoms: _103  and  _106
REMARK   45  A    between atoms: _106  and  _107
REMARK   46  A    between atoms: _109  and  _111
REMARK   47  A    between atoms: _111  and  _112
REMARK   48  A    between atoms: _111  and  _114
REMARK   49  A    between atoms: _114  and  _115
REMARK   50  A    between atoms: _115  and  _116
REMARK   51  A    between atoms: _116  and  _117
REMARK   52  A    between atoms: _117  and  _118
REMARK   53  A    between atoms: _122  and  _124
REMARK   54  A    between atoms: _124  and  _125
REMARK   55  A    between atoms: _124  and  _127
REMARK   56  A    between atoms: _127  and  _128
REMARK   57  A    between atoms: _131  and  _133
REMARK   58  A    between atoms: _133  and  _134
REMARK   59  A    between atoms: _133  and  _136
REMARK   60  A    between atoms: _136  and  _137
REMARK   61  A    between atoms: _137  and  _138
REMARK   62  A    between atoms: _141  and  _143
REMARK   63  A    between atoms: _143  and  _144
REMARK   64  A    between atoms: _147  and  _149
REMARK   65  A    between atoms: _149  and  _150
REMARK   66  A    between atoms: _149  and  _152
REMARK   67  A    between atoms: _155  and  _157
REMARK   68  A    between atoms: _157  and  _158
REMARK   69  A    between atoms: _157  and  _160
REMARK   70  A    between atoms: _160  and  _161
REMARK   71  A    between atoms: _163  and  _165
REMARK   72  A    between atoms: _165  and  _166
REMARK   73  A    between atoms: _168  and  _170
REMARK   74  A    between atoms: _170  and  _171
REMARK   75  A    between atoms: _170  and  _173
REMARK   76  A    between atoms: _173  and  _174
REMARK   77  A    between atoms: _179  and  _181
REMARK   78  A    between atoms: _181  and  _182
REMARK   79  A    between atoms: _181  and  _184
REMARK   80  A    between atoms: _184  and  _185
REMARK   81  A    between atoms: _190  and  _191
REMARK   82  A    between atoms: _193  and  _195
REMARK   83  A    between atoms: _195  and  _196
REMARK   84  A    between atoms: _195  and  _198
REMARK   85  A    between atoms: _200  and  _202
REMARK   86  A    between atoms: _202  and  _203
REMARK   87  A    between atoms: _202  and  _205
REMARK   88  A    between atoms: _205  and  _206
REMARK   89  A    between atoms: _209  and  _211
REMARK   90  A    between atoms: _211  and  _212
REMARK   91  A    between atoms: _211  and  _214
REMARK   92  A    between atoms: _214  and  _215
REMARK   93  A    between atoms: _218  and  _220
REMARK   94  A    between atoms: _220  and  _221
REMARK   95  A    between atoms: _220  and  _223
REMARK   96  A    between atoms: _223  and  _224
REMARK   97  A    between atoms: _224  and  _225
REMARK   98  A    between atoms: _225  and  _226
REMARK   99  A    between atoms: _226  and  _227
REMARK  100  A    between atoms: _231  and  _233
REMARK  101  A    between atoms: _233  and  _234
REMARK  102  A    between atoms: _233  and  _236
REMARK  103  A    between atoms: _236  and  _237
REMARK  104  A    between atoms: _237  and  _238
REMARK  105  A    between atoms: _238  and  _239
REMARK  106  A    between atoms: _239  and  _240
REMARK  107  A    between atoms: _244  and  _246
REMARK  108  A    between atoms: _246  and  _247
REMARK  109  A    between atoms: _246  and  _249
REMARK  110  A    between atoms: _249  and  _250
REMARK  111  A    between atoms: _250  and  _251
REMARK  112  A    between atoms: _251  and  _252
REMARK  113  A    between atoms: _261  and  _263
REMARK  114  A    between atoms: _263  and  _264
REMARK  115  A    between atoms: _263  and  _266
REMARK  116  A    between atoms: _266  and  _267
REMARK  117  A    between atoms: _270  and  _272
REMARK  118  A    between atoms: _272  and  _273
REMARK  119  A    between atoms: _276  and  _278
REMARK  120  A    between atoms: _278  and  _279
REMARK  121  A    between atoms: _278  and  _281
REMARK  122  A    between atoms: _281  and  _282
REMARK  123  A    between atoms: _282  and  _283
REMARK  124  A    between atoms: _288  and  _290
REMARK  125  A    between atoms: _290  and  _291
REMARK  126  A    between atoms: _290  and  _293
REMARK  127  A    between atoms: _293  and  _294
REMARK  128  A    between atoms: _294  and  _295
REMARK  129  A    between atoms: _298  and  _300
REMARK  130  A    between atoms: _300  and  _301
REMARK  131  A    between atoms: _303  and  _305
REMARK  132  A    between atoms: _305  and  _306
REMARK  133  A    between atoms: _305  and  _308
REMARK  134  A    between atoms: _310  and  _312
REMARK  135  A    between atoms: _312  and  _313
REMARK  136  A    between atoms: _312  and  _315
REMARK  137  A    between atoms: _315  and  _316
REMARK  138  A    between atoms: _319  and  _321
REMARK  139  A    between atoms: _321  and  _322
REMARK  140  A    between atoms: _321  and  _324
REMARK  141  A    between atoms: _327  and  _329
REMARK  142  A    between atoms: _329  and  _330
REMARK  143  A    between atoms: _333  and  _335
REMARK  144  A    between atoms: _335  and  _336
REMARK  145  A    between atoms: _335  and  _338
REMARK  146  A    between atoms: _338  and  _339
REMARK  147  A    between atoms: _341  and  _343
REMARK  148  A    between atoms: _343  and  _344
REMARK  149  A    between atoms: _343  and  _346
REMARK  150  A    between atoms: _346  and  _347
REMARK  151  A    between atoms: _350  and  _352
REMARK  152  A    between atoms: _352  and  _353
REMARK  153  A    between atoms: _352  and  _355
REMARK  154  A    between atoms: _355  and  _356
REMARK  155  A    between atoms: _361  and  _363
REMARK  156  A    between atoms: _363  and  _364
REMARK  157  A    between atoms: _363  and  _366
REMARK  158  A    between atoms: _366  and  _367
REMARK  159  A    between atoms: _367  and  _368
REMARK  160  A    between atoms: _368  and  _369
REMARK  161  A    between atoms: _378  and  _380
REMARK  162  A    between atoms: _380  and  _381
REMARK  163  A    between atoms: _383  and  _385
REMARK  164  A    between atoms: _385  and  _386
REMARK  165  A    between atoms: _385  and  _388
REMARK  166  A    between atoms: _391  and  _393
REMARK  167  A    between atoms: _393  and  _394
REMARK  168  A    between atoms: _393  and  _396
REMARK  169  A    between atoms: _396  and  _397
REMARK  170  A    between atoms: _400  and  _402
REMARK  171  A    between atoms: _402  and  _403
REMARK  172  A    between atoms: _402  and  _405
REMARK  173  A    between atoms: _405  and  _406
REMARK  174  A    between atoms: _406  and  _407
REMARK  175  A    between atoms: _407  and  _408
REMARK  176  A    between atoms: _408  and  _409
REMARK  177  A    between atoms: _413  and  _415
REMARK  178  A    between atoms: _415  and  _416
REMARK  179  A    between atoms: _415  and  _418
REMARK  180  A    between atoms: _418  and  _419
REMARK  181  A    between atoms: _419  and  _420
REMARK  182  A    between atoms: _420  and  _421
REMARK  183  A    between atoms: _421  and  _422
REMARK  184  A    between atoms: _426  and  _428
REMARK  185  A    between atoms: _428  and  _429
REMARK  186  A    between atoms: _428  and  _431
REMARK  187  A    between atoms: _431  and  _432
REMARK  188  A    between atoms: _437  and  _439
REMARK  189  A    between atoms: _439  and  _440
REMARK  190  A    between atoms: _439  and  _442
REMARK  191  A    between atoms: _442  and  _443
REMARK  192  A    between atoms: _448  and  _450
REMARK  193  A    between atoms: _450  and  _451
REMARK  194  A    between atoms: _454  and  _456
REMARK  195  A    between atoms: _456  and  _457
REMARK  196  A    between atoms: _456  and  _459
REMARK  197  A    between atoms: _459  and  _460
REMARK  198  A    between atoms: _465  and  _467
REMARK  199  A    between atoms: _467  and  _468
REMARK  200  A    between atoms: _471  and  _473
REMARK  201  A    between atoms: _473  and  _474
REMARK  202  A    between atoms: _477  and  _479
REMARK  203  A    between atoms: _479  and  _480
REMARK  204  A    between atoms: _479  and  _482
REMARK  205  A    between atoms: _482  and  _483
REMARK  206  A    between atoms: _488  and  _490
REMARK  207  A    between atoms: _490  and  _491
REMARK  208  A    between atoms: _490  and  _493
REMARK  209  A    between atoms: _493  and  _494
REMARK  210  A    between atoms: _497  and  _499
REMARK  211  A    between atoms: _499  and  _500
REMARK  212  A    between atoms: _502  and  _504
REMARK  213  A    between atoms: _504  and  _505
REMARK  214  A    between atoms: _504  and  _507
REMARK  215  A    between atoms: _507  and  _508
REMARK  216  A    between atoms: _508  and  _509
REMARK  217  A    between atoms: _512  and  _514
REMARK  218  A    between atoms: _514  and  _515
REMARK  219  A    between atoms: _514  and  _517
REMARK  220  A    between atoms: _517  and  _518
REMARK  221  A    between atoms: _521  and  _523
REMARK  222  A    between atoms: _523  and  _524
REMARK  223  A    between atoms: _523  and  _526
REMARK  224  A    between atoms: _526  and  _527
REMARK  225  A    between atoms: _529  and  _531
REMARK  226  A    between atoms: _531  and  _532
REMARK  227  A    between atoms: _531  and  _534
REMARK  228  A    between atoms: _534  and  _535
REMARK  229  A    between atoms: _538  and  _540
REMARK  230  A    between atoms: _540  and  _541
REMARK  231  A    between atoms: _540  and  _543
REMARK  232  A    between atoms: _543  and  _544
REMARK  233  A    between atoms: _544  and  _545
REMARK  234  A    between atoms: _547  and  _549
REMARK  235  A    between atoms: _549  and  _550
REMARK  236  A    between atoms: _553  and  _555
REMARK  237  A    between atoms: _555  and  _556
REMARK  238  A    between atoms: _559  and  _561
REMARK  239  A    between atoms: _561  and  _562
REMARK  240  A    between atoms: _561  and  _564
REMARK  241  A    between atoms: _564  and  _565
REMARK  242  A    between atoms: _568  and  _570
REMARK  243  A    between atoms: _570  and  _571
REMARK  244  A    between atoms: _574  and  _576
REMARK  245  A    between atoms: _576  and  _577
REMARK  246  A    between atoms: _580  and  _582
REMARK  247  A    between atoms: _582  and  _583
REMARK  248  A    between atoms: _585  and  _587
REMARK  249  A    between atoms: _587  and  _588
REMARK  250  A    between atoms: _587  and  _590
REMARK  251  A    between atoms: _590  and  _591
REMARK                            x       y       z     vdW  Elec       q    Type
REMARK                         _______ _______ _______ _____ _____    ______ ____
ROOT
ATOM      1  O   HOH     1      16.526  12.664   8.905  0.00  0.00    +0.000 OA
ENDROOT
TORSDOF 0
REMARK  Name = ../refined-set-2016/3cda/3cda_pocket.pdb
REMARK  251 active torsions:
REMARK  status: ('A' for Active; 'I' for Inactive)
REMARK    1  A    between atoms: _1  and  _3
REMARK    2  A    between atoms: _3  and  _4
REMARK    3  A    between atoms: _3  and  _6
REMARK    4  A    between atoms: _6  and  _7
REMARK    5  A    between atoms: _12  and  _13
REMARK    6  A    between atoms: _15  and  _17
REMARK    7  A    between atoms: _17  and  _18
REMARK    8  A    between atoms: _17  and  _20
REMARK    9  A    between atoms: _20  and  _21
REMARK   10  A    between atoms: _21  and  _22
REMARK   11  A    between atoms: _25  and  _27
REMARK   12  A    between atoms: _27  and  _28
REMARK   13  A    between atoms: _27  and  _30
REMARK   14  A    between atoms: _30  and  _31
REMARK   15  A    between atoms: _34  and  _36
REMARK   16  A    between atoms: _36  and  _37
REMARK   17  A    between atoms: _36  and  _39
REMARK   18  A    between atoms: _39  and  _40
REMARK   19  A    between atoms: _40  and  _41
REMARK   20  A    between atoms: _41  and  _42
REMARK   21  A    between atoms: _51  and  _53
REMARK   22  A    between atoms: _53  and  _54
REMARK   23  A    between atoms: _57  and  _58
REMARK   24  A    between atoms: _63  and  _65
REMARK   25  A    between atoms: _65  and  _66
REMARK   26  A    between atoms: _65  and  _68
REMARK   27  A    between atoms: _68  and  _69
REMARK   28  A    between atoms: _69  and  _70
REMARK   29  A    between atoms: _72  and  _74
REMARK   30  A    between atoms: _74  and  _75
REMARK   31  A    between atoms: _74  and  _77
REMARK   32  A    between atoms: _77  and  _78
REMARK   33  A    between atoms: _78  and  _79
REMARK   34  A    between atoms: _81  and  _83
REMARK   35  A    between atoms: _83  and  _84
REMARK   36  A    between atoms: _83  and  _86
REMARK   37  A    between atoms: _86  and  _87
REMARK   38  A    between atoms: _92  and  _94
REMARK   39  A    between atoms: _94  and  _95
REMARK   40  A    between atoms: _94  and  _97
REMARK   41  A    between atoms: _97  and  _98
REMARK   42  A    between atoms: _101  and  _103
REMARK   43  A    between atoms: _103  and  _104
REMARK   44  A    between atoms: _103  and  _106
REMARK   45  A    between atoms: _106  and  _107
REMARK   46  A    between atoms: _109  and  _111
REMARK   47  A    between atoms: _111  and  _112
REMARK   48  A    between atoms: _111  and  _114
REMARK   49  A    between atoms: _114  and  _115
REMARK   50  A    between atoms: _115  and  _116
REMARK   51  A    between atoms: _116  and  _117
REMARK   52  A    between atoms: _117  and  _118
REMARK   53  A    between atoms: _122  and  _124
REMARK   54  A    between atoms: _124  and  _125
REMARK   55  A    between atoms: _124  and  _127
REMARK   56  A    between atoms: _127  and  _128
REMARK   57  A    between atoms: _131  and  _133
REMARK   58  A    between atoms: _133  and  _134
REMARK   59  A    between atoms: _133  and  _136
REMARK   60  A    between atoms: _136  and  _137
REMARK   61  A    between atoms: _137  and  _138
REMARK   62  A    between atoms: _141  and  _143
REMARK   63  A    between atoms: _143  and  _144
REMARK   64  A    between atoms: _147  and  _149
REMARK   65  A    between atoms: _149  and  _150
REMARK   66  A    between atoms: _149  and  _152
REMARK   67  A    between atoms: _155  and  _157
REMARK   68  A    between atoms: _157  and  _158
REMARK   69  A    between atoms: _157  and  _160
REMARK   70  A    between atoms: _160  and  _161
REMARK   71  A    between atoms: _163  and  _165
REMARK   72  A    between atoms: _165  and  _166
REMARK   73  A    between atoms: _168  and  _170
REMARK   74  A    between atoms: _170  and  _171
REMARK   75  A    between atoms: _170  and  _173
REMARK   76  A    between atoms: _173  and  _174
REMARK   77  A    between atoms: _179  and  _181
REMARK   78  A    between atoms: _181  and  _182
REMARK   79  A    between atoms: _181  and  _184
REMARK   80  A    between atoms: _184  and  _185
REMARK   81  A    between atoms: _190  and  _191
REMARK   82  A    between atoms: _193  and  _195
REMARK   83  A    between atoms: _195  and  _196
REMARK   84  A    between atoms: _195  and  _198
REMARK   85  A    between atoms: _200  and  _202
REMARK   86  A    between atoms: _202  and  _203
REMARK   87  A    between atoms: _202  and  _205
REMARK   88  A    between atoms: _205  and  _206
REMARK   89  A    between atoms: _209  and  _211
REMARK   90  A    between atoms: _211  and  _212
REMARK   91  A    between atoms: _211  and  _214
REMARK   92  A    between atoms: _214  and  _215
REMARK   93  A    between atoms: _218  and  _220
REMARK   94  A    between atoms: _220  and  _221
REMARK   95  A    between atoms: _220  and  _223
REMARK   96  A    between atoms: _223  and  _224
REMARK   97  A    between atoms: _224  and  _225
REMARK   98  A    between atoms: _225  and  _226
REMARK   99  A    between atoms: _226  and  _227
REMARK  100  A    between atoms: _231  and  _233
REMARK  101  A    between atoms: _233  and  _234
REMARK  102  A    between atoms: _233  and  _236
REMARK  103  A    between atoms: _236  and  _237
REMARK  104  A    between atoms: _237  and  _238
REMARK  105  A    between atoms: _238  and  _239
REMARK  106  A    between atoms: _239  and  _240
REMARK  107  A    between atoms: _244  and  _246
REMARK  108  A    between atoms: _246  and  _247
REMARK  109  A    between atoms: _246  and  _249
REMARK  110  A    between atoms: _249  and  _250
REMARK  111  A    between atoms: _250  and  _251
REMARK  112  A    between atoms: _251  and  _252
REMARK  113  A    between atoms: _261  and  _263
REMARK  114  A    between atoms: _263  and  _264
REMARK  115  A    between atoms: _263  and  _266
REMARK  116  A    between atoms: _266  and  _267
REMARK  117  A    between atoms: _270  and  _272
REMARK  118  A    between atoms: _272  and  _273
REMARK  119  A    between atoms: _276  and  _278
REMARK  120  A    between atoms: _278  and  _279
REMARK  121  A    between atoms: _278  and  _281
REMARK  122  A    between atoms: _281  and  _282
REMARK  123  A    between atoms: _282  and  _283
REMARK  124  A    between atoms: _288  and  _290
REMARK  125  A    between atoms: _290  and  _291
REMARK  126  A    between atoms: _290  and  _293
REMARK  127  A    between atoms: _293  and  _294
REMARK  128  A    between atoms: _294  and  _295
REMARK  129  A    between atoms: _298  and  _300
REMARK  130  A    between atoms: _300  and  _301
REMARK  131  A    between atoms: _303  and  _305
REMARK  132  A    between atoms: _305  and  _306
REMARK  133  A    between atoms: _305  and  _308
REMARK  134  A    between atoms: _310  and  _312
REMARK  135  A    between atoms: _312  and  _313
REMARK  136  A    between atoms: _312  and  _315
REMARK  137  A    between atoms: _315  and  _316
REMARK  138  A    between atoms: _319  and  _321
REMARK  139  A    between atoms: _321  and  _322
REMARK  140  A    between atoms: _321  and  _324
REMARK  141  A    between atoms: _327  and  _329
REMARK  142  A    between atoms: _329  and  _330
REMARK  143  A    between atoms: _333  and  _335
REMARK  144  A    between atoms: _335  and  _336
REMARK  145  A    between atoms: _335  and  _338
REMARK  146  A    between atoms: _338  and  _339
REMARK  147  A    between atoms: _341  and  _343
REMARK  148  A    between atoms: _343  and  _344
REMARK  149  A    between atoms: _343  and  _346
REMARK  150  A    between atoms: _346  and  _347
REMARK  151  A    between atoms: _350  and  _352
REMARK  152  A    between atoms: _352  and  _353
REMARK  153  A    between atoms: _352  and  _355
REMARK  154  A    between atoms: _355  and  _356
REMARK  155  A    between atoms: _361  and  _363
REMARK  156  A    between atoms: _363  and  _364
REMARK  157  A    between atoms: _363  and  _366
REMARK  158  A    between atoms: _366  and  _367
REMARK  159  A    between atoms: _367  and  _368
REMARK  160  A    between atoms: _368  and  _369
REMARK  161  A    between atoms: _378  and  _380
REMARK  162  A    between atoms: _380  and  _381
REMARK  163  A    between atoms: _383  and  _385
REMARK  164  A    between atoms: _385  and  _386
REMARK  165  A    between atoms: _385  and  _388
REMARK  166  A    between atoms: _391  and  _393
REMARK  167  A    between atoms: _393  and  _394
REMARK  168  A    between atoms: _393  and  _396
REMARK  169  A    between atoms: _396  and  _397
REMARK  170  A    between atoms: _400  and  _402
REMARK  171  A    between atoms: _402  and  _403
REMARK  172  A    between atoms: _402  and  _405
REMARK  173  A    between atoms: _405  and  _406
REMARK  174  A    between atoms: _406  and  _407
REMARK  175  A    between atoms: _407  and  _408
REMARK  176  A    between atoms: _408  and  _409
REMARK  177  A    between atoms: _413  and  _415
REMARK  178  A    between atoms: _415  and  _416
REMARK  179  A    between atoms: _415  and  _418
REMARK  180  A    between atoms: _418  and  _419
REMARK  181  A    between atoms: _419  and  _420
REMARK  182  A    between atoms: _420  and  _421
REMARK  183  A    between atoms: _421  and  _422
REMARK  184  A    between atoms: _426  and  _428
REMARK  185  A    between atoms: _428  and  _429
REMARK  186  A    between atoms: _428  and  _431
REMARK  187  A    between atoms: _431  and  _432
REMARK  188  A    between atoms: _437  and  _439
REMARK  189  A    between atoms: _439  and  _440
REMARK  190  A    between atoms: _439  and  _442
REMARK  191  A    between atoms: _442  and  _443
REMARK  192  A    between atoms: _448  and  _450
REMARK  193  A    between atoms: _450  and  _451
REMARK  194  A    between atoms: _454  and  _456
REMARK  195  A    between atoms: _456  and  _457
REMARK  196  A    between atoms: _456  and  _459
REMARK  197  A    between atoms: _459  and  _460
REMARK  198  A    between atoms: _465  and  _467
REMARK  199  A    between atoms: _467  and  _468
REMARK  200  A    between atoms: _471  and  _473
REMARK  201  A    between atoms: _473  and  _474
REMARK  202  A    between atoms: _477  and  _479
REMARK  203  A    between atoms: _479  and  _480
REMARK  204  A    between atoms: _479  and  _482
REMARK  205  A    between atoms: _482  and  _483
REMARK  206  A    between atoms: _488  and  _490
REMARK  207  A    between atoms: _490  and  _491
REMARK  208  A    between atoms: _490  and  _493
REMARK  209  A    between atoms: _493  and  _494
REMARK  210  A    between atoms: _497  and  _499
REMARK  211  A    between atoms: _499  and  _500
REMARK  212  A    between atoms: _502  and  _504
REMARK  213  A    between atoms: _504  and  _505
REMARK  214  A    between atoms: _504  and  _507
REMARK  215  A    between atoms: _507  and  _508
REMARK  216  A    between atoms: _508  and  _509
REMARK  217  A    between atoms: _512  and  _514
REMARK  218  A    between atoms: _514  and  _515
REMARK  219  A    between atoms: _514  and  _517
REMARK  220  A    between atoms: _517  and  _518
REMARK  221  A    between atoms: _521  and  _523
REMARK  222  A    between atoms: _523  and  _524
REMARK  223  A    between atoms: _523  and  _526
REMARK  224  A    between atoms: _526  and  _527
REMARK  225  A    between atoms: _529  and  _531
REMARK  226  A    between atoms: _531  and  _532
REMARK  227  A    between atoms: _531  and  _534
REMARK  228  A    between atoms: _534  and  _535
REMARK  229  A    between atoms: _538  and  _540
REMARK  230  A    between atoms: _540  and  _541
REMARK  231  A    between atoms: _540  and  _543
REMARK  232  A    between atoms: _543  and  _544
REMARK  233  A    between atoms: _544  and  _545
REMARK  234  A    between atoms: _547  and  _549
REMARK  235  A    between atoms: _549  and  _550
REMARK  236  A    between atoms: _553  and  _555
REMARK  237  A    between atoms: _555  and  _556
REMARK  238  A    between atoms: _559  and  _561
REMARK  239  A    between atoms: _561  and  _562
REMARK  240  A    between atoms: _561  and  _564
REMARK  241  A    between atoms: _564  and  _565
REMARK  242  A    between atoms: _568  and  _570
REMARK  243  A    between atoms: _570  and  _571
REMARK  244  A    between atoms: _574  and  _576
REMARK  245  A    between atoms: _576  and  _577
REMARK  246  A    between atoms: _580  and  _582
REMARK  247  A    between atoms: _582  and  _583
REMARK  248  A    between atoms: _585  and  _587
REMARK  249  A    between atoms: _587  and  _588
REMARK  250  A    between atoms: _587  and  _590
REMARK  251  A    between atoms: _590  and  _591
REMARK                            x       y       z     vdW  Elec       q    Type
REMARK                         _______ _______ _______ _____ _____    ______ ____
ROOT
ATOM      1  O   HOH     1      22.537  15.646   8.672  0.00  0.00    +0.000 OA
ENDROOT
TORSDOF 0
REMARK  Name = ../refined-set-2016/3cda/3cda_pocket.pdb
REMARK  251 active torsions:
REMARK  status: ('A' for Active; 'I' for Inactive)
REMARK    1  A    between atoms: _1  and  _3
REMARK    2  A    between atoms: _3  and  _4
REMARK    3  A    between atoms: _3  and  _6
REMARK    4  A    between atoms: _6  and  _7
REMARK    5  A    between atoms: _12  and  _13
REMARK    6  A    between atoms: _15  and  _17
REMARK    7  A    between atoms: _17  and  _18
REMARK    8  A    between atoms: _17  and  _20
REMARK    9  A    between atoms: _20  and  _21
REMARK   10  A    between atoms: _21  and  _22
REMARK   11  A    between atoms: _25  and  _27
REMARK   12  A    between atoms: _27  and  _28
REMARK   13  A    between atoms: _27  and  _30
REMARK   14  A    between atoms: _30  and  _31
REMARK   15  A    between atoms: _34  and  _36
REMARK   16  A    between atoms: _36  and  _37
REMARK   17  A    between atoms: _36  and  _39
REMARK   18  A    between atoms: _39  and  _40
REMARK   19  A    between atoms: _40  and  _41
REMARK   20  A    between atoms: _41  and  _42
REMARK   21  A    between atoms: _51  and  _53
REMARK   22  A    between atoms: _53  and  _54
REMARK   23  A    between atoms: _57  and  _58
REMARK   24  A    between atoms: _63  and  _65
REMARK   25  A    between atoms: _65  and  _66
REMARK   26  A    between atoms: _65  and  _68
REMARK   27  A    between atoms: _68  and  _69
REMARK   28  A    between atoms: _69  and  _70
REMARK   29  A    between atoms: _72  and  _74
REMARK   30  A    between atoms: _74  and  _75
REMARK   31  A    between atoms: _74  and  _77
REMARK   32  A    between atoms: _77  and  _78
REMARK   33  A    between atoms: _78  and  _79
REMARK   34  A    between atoms: _81  and  _83
REMARK   35  A    between atoms: _83  and  _84
REMARK   36  A    between atoms: _83  and  _86
REMARK   37  A    between atoms: _86  and  _87
REMARK   38  A    between atoms: _92  and  _94
REMARK   39  A    between atoms: _94  and  _95
REMARK   40  A    between atoms: _94  and  _97
REMARK   41  A    between atoms: _97  and  _98
REMARK   42  A    between atoms: _101  and  _103
REMARK   43  A    between atoms: _103  and  _104
REMARK   44  A    between atoms: _103  and  _106
REMARK   45  A    between atoms: _106  and  _107
REMARK   46  A    between atoms: _109  and  _111
REMARK   47  A    between atoms: _111  and  _112
REMARK   48  A    between atoms: _111  and  _114
REMARK   49  A    between atoms: _114  and  _115
REMARK   50  A    between atoms: _115  and  _116
REMARK   51  A    between atoms: _116  and  _117
REMARK   52  A    between atoms: _117  and  _118
REMARK   53  A    between atoms: _122  and  _124
REMARK   54  A    between atoms: _124  and  _125
REMARK   55  A    between atoms: _124  and  _127
REMARK   56  A    between atoms: _127  and  _128
REMARK   57  A    between atoms: _131  and  _133
REMARK   58  A    between atoms: _133  and  _134
REMARK   59  A    between atoms: _133  and  _136
REMARK   60  A    between atoms: _136  and  _137
REMARK   61  A    between atoms: _137  and  _138
REMARK   62  A    between atoms: _141  and  _143
REMARK   63  A    between atoms: _143  and  _144
REMARK   64  A    between atoms: _147  and  _149
REMARK   65  A    between atoms: _149  and  _150
REMARK   66  A    between atoms: _149  and  _152
REMARK   67  A    between atoms: _155  and  _157
REMARK   68  A    between atoms: _157  and  _158
REMARK   69  A    between atoms: _157  and  _160
REMARK   70  A    between atoms: _160  and  _161
REMARK   71  A    between atoms: _163  and  _165
REMARK   72  A    between atoms: _165  and  _166
REMARK   73  A    between atoms: _168  and  _170
REMARK   74  A    between atoms: _170  and  _171
REMARK   75  A    between atoms: _170  and  _173
REMARK   76  A    between atoms: _173  and  _174
REMARK   77  A    between atoms: _179  and  _181
REMARK   78  A    between atoms: _181  and  _182
REMARK   79  A    between atoms: _181  and  _184
REMARK   80  A    between atoms: _184  and  _185
REMARK   81  A    between atoms: _190  and  _191
REMARK   82  A    between atoms: _193  and  _195
REMARK   83  A    between atoms: _195  and  _196
REMARK   84  A    between atoms: _195  and  _198
REMARK   85  A    between atoms: _200  and  _202
REMARK   86  A    between atoms: _202  and  _203
REMARK   87  A    between atoms: _202  and  _205
REMARK   88  A    between atoms: _205  and  _206
REMARK   89  A    between atoms: _209  and  _211
REMARK   90  A    between atoms: _211  and  _212
REMARK   91  A    between atoms: _211  and  _214
REMARK   92  A    between atoms: _214  and  _215
REMARK   93  A    between atoms: _218  and  _220
REMARK   94  A    between atoms: _220  and  _221
REMARK   95  A    between atoms: _220  and  _223
REMARK   96  A    between atoms: _223  and  _224
REMARK   97  A    between atoms: _224  and  _225
REMARK   98  A    between atoms: _225  and  _226
REMARK   99  A    between atoms: _226  and  _227
REMARK  100  A    between atoms: _231  and  _233
REMARK  101  A    between atoms: _233  and  _234
REMARK  102  A    between atoms: _233  and  _236
REMARK  103  A    between atoms: _236  and  _237
REMARK  104  A    between atoms: _237  and  _238
REMARK  105  A    between atoms: _238  and  _239
REMARK  106  A    between atoms: _239  and  _240
REMARK  107  A    between atoms: _244  and  _246
REMARK  108  A    between atoms: _246  and  _247
REMARK  109  A    between atoms: _246  and  _249
REMARK  110  A    between atoms: _249  and  _250
REMARK  111  A    between atoms: _250  and  _251
REMARK  112  A    between atoms: _251  and  _252
REMARK  113  A    between atoms: _261  and  _263
REMARK  114  A    between atoms: _263  and  _264
REMARK  115  A    between atoms: _263  and  _266
REMARK  116  A    between atoms: _266  and  _267
REMARK  117  A    between atoms: _270  and  _272
REMARK  118  A    between atoms: _272  and  _273
REMARK  119  A    between atoms: _276  and  _278
REMARK  120  A    between atoms: _278  and  _279
REMARK  121  A    between atoms: _278  and  _281
REMARK  122  A    between atoms: _281  and  _282
REMARK  123  A    between atoms: _282  and  _283
REMARK  124  A    between atoms: _288  and  _290
REMARK  125  A    between atoms: _290  and  _291
REMARK  126  A    between atoms: _290  and  _293
REMARK  127  A    between atoms: _293  and  _294
REMARK  128  A    between atoms: _294  and  _295
REMARK  129  A    between atoms: _298  and  _300
REMARK  130  A    between atoms: _300  and  _301
REMARK  131  A    between atoms: _303  and  _305
REMARK  132  A    between atoms: _305  and  _306
REMARK  133  A    between atoms: _305  and  _308
REMARK  134  A    between atoms: _310  and  _312
REMARK  135  A    between atoms: _312  and  _313
REMARK  136  A    between atoms: _312  and  _315
REMARK  137  A    between atoms: _315  and  _316
REMARK  138  A    between atoms: _319  and  _321
REMARK  139  A    between atoms: _321  and  _322
REMARK  140  A    between atoms: _321  and  _324
REMARK  141  A    between atoms: _327  and  _329
REMARK  142  A    between atoms: _329  and  _330
REMARK  143  A    between atoms: _333  and  _335
REMARK  144  A    between atoms: _335  and  _336
REMARK  145  A    between atoms: _335  and  _338
REMARK  146  A    between atoms: _338  and  _339
REMARK  147  A    between atoms: _341  and  _343
REMARK  148  A    between atoms: _343  and  _344
REMARK  149  A    between atoms: _343  and  _346
REMARK  150  A    between atoms: _346  and  _347
REMARK  151  A    between atoms: _350  and  _352
REMARK  152  A    between atoms: _352  and  _353
REMARK  153  A    between atoms: _352  and  _355
REMARK  154  A    between atoms: _355  and  _356
REMARK  155  A    between atoms: _361  and  _363
REMARK  156  A    between atoms: _363  and  _364
REMARK  157  A    between atoms: _363  and  _366
REMARK  158  A    between atoms: _366  and  _367
REMARK  159  A    between atoms: _367  and  _368
REMARK  160  A    between atoms: _368  and  _369
REMARK  161  A    between atoms: _378  and  _380
REMARK  162  A    between atoms: _380  and  _381
REMARK  163  A    between atoms: _383  and  _385
REMARK  164  A    between atoms: _385  and  _386
REMARK  165  A    between atoms: _385  and  _388
REMARK  166  A    between atoms: _391  and  _393
REMARK  167  A    between atoms: _393  and  _394
REMARK  168  A    between atoms: _393  and  _396
REMARK  169  A    between atoms: _396  and  _397
REMARK  170  A    between atoms: _400  and  _402
REMARK  171  A    between atoms: _402  and  _403
REMARK  172  A    between atoms: _402  and  _405
REMARK  173  A    between atoms: _405  and  _406
REMARK  174  A    between atoms: _406  and  _407
REMARK  175  A    between atoms: _407  and  _408
REMARK  176  A    between atoms: _408  and  _409
REMARK  177  A    between atoms: _413  and  _415
REMARK  178  A    between atoms: _415  and  _416
REMARK  179  A    between atoms: _415  and  _418
REMARK  180  A    between atoms: _418  and  _419
REMARK  181  A    between atoms: _419  and  _420
REMARK  182  A    between atoms: _420  and  _421
REMARK  183  A    between atoms: _421  and  _422
REMARK  184  A    between atoms: _426  and  _428
REMARK  185  A    between atoms: _428  and  _429
REMARK  186  A    between atoms: _428  and  _431
REMARK  187  A    between atoms: _431  and  _432
REMARK  188  A    between atoms: _437  and  _439
REMARK  189  A    between atoms: _439  and  _440
REMARK  190  A    between atoms: _439  and  _442
REMARK  191  A    between atoms: _442  and  _443
REMARK  192  A    between atoms: _448  and  _450
REMARK  193  A    between atoms: _450  and  _451
REMARK  194  A    between atoms: _454  and  _456
REMARK  195  A    between atoms: _456  and  _457
REMARK  196  A    between atoms: _456  and  _459
REMARK  197  A    between atoms: _459  and  _460
REMARK  198  A    between atoms: _465  and  _467
REMARK  199  A    between atoms: _467  and  _468
REMARK  200  A    between atoms: _471  and  _473
REMARK  201  A    between atoms: _473  and  _474
REMARK  202  A    between atoms: _477  and  _479
REMARK  203  A    between atoms: _479  and  _480
REMARK  204  A    between atoms: _479  and  _482
REMARK  205  A    between atoms: _482  and  _483
REMARK  206  A    between atoms: _488  and  _490
REMARK  207  A    between atoms: _490  and  _491
REMARK  208  A    between atoms: _490  and  _493
REMARK  209  A    between atoms: _493  and  _494
REMARK  210  A    between atoms: _497  and  _499
REMARK  211  A    between atoms: _499  and  _500
REMARK  212  A    between atoms: _502  and  _504
REMARK  213  A    between atoms: _504  and  _505
REMARK  214  A    between atoms: _504  and  _507
REMARK  215  A    between atoms: _507  and  _508
REMARK  216  A    between atoms: _508  and  _509
REMARK  217  A    between atoms: _512  and  _514
REMARK  218  A    between atoms: _514  and  _515
REMARK  219  A    between atoms: _514  and  _517
REMARK  220  A    between atoms: _517  and  _518
REMARK  221  A    between atoms: _521  and  _523
REMARK  222  A    between atoms: _523  and  _524
REMARK  223  A    between atoms: _523  and  _526
REMARK  224  A    between atoms: _526  and  _527
REMARK  225  A    between atoms: _529  and  _531
REMARK  226  A    between atoms: _531  and  _532
REMARK  227  A    between atoms: _531  and  _534
REMARK  228  A    between atoms: _534  and  _535
REMARK  229  A    between atoms: _538  and  _540
REMARK  230  A    between atoms: _540  and  _541
REMARK  231  A    between atoms: _540  and  _543
REMARK  232  A    between atoms: _543  and  _544
REMARK  233  A    between atoms: _544  and  _545
REMARK  234  A    between atoms: _547  and  _549
REMARK  235  A    between atoms: _549  and  _550
REMARK  236  A    between atoms: _553  and  _555
REMARK  237  A    between atoms: _555  and  _556
REMARK  238  A    between atoms: _559  and  _561
REMARK  239  A    between atoms: _561  and  _562
REMARK  240  A    between atoms: _561  and  _564
REMARK  241  A    between atoms: _564  and  _565
REMARK  242  A    between atoms: _568  and  _570
REMARK  243  A    between atoms: _570  and  _571
REMARK  244  A    between atoms: _574  and  _576
REMARK  245  A    between atoms: _576  and  _577
REMARK  246  A    between atoms: _580  and  _582
REMARK  247  A    between atoms: _582  and  _583
REMARK  248  A    between atoms: _585  and  _587
REMARK  249  A    between atoms: _587  and  _588
REMARK  250  A    between atoms: _587  and  _590
REMARK  251  A    between atoms: _590  and  _591
REMARK                            x       y       z     vdW  Elec       q    Type
REMARK                         _______ _______ _______ _____ _____    ______ ____
ROOT
ATOM      1  O   HOH     1      16.256  21.067   3.334  0.00  0.00    +0.000 OA
ENDROOT
TORSDOF 0
REMARK  Name = ../refined-set-2016/3cda/3cda_pocket.pdb
REMARK  251 active torsions:
REMARK  status: ('A' for Active; 'I' for Inactive)
REMARK    1  A    between atoms: _1  and  _3
REMARK    2  A    between atoms: _3  and  _4
REMARK    3  A    between atoms: _3  and  _6
REMARK    4  A    between atoms: _6  and  _7
REMARK    5  A    between atoms: _12  and  _13
REMARK    6  A    between atoms: _15  and  _17
REMARK    7  A    between atoms: _17  and  _18
REMARK    8  A    between atoms: _17  and  _20
REMARK    9  A    between atoms: _20  and  _21
REMARK   10  A    between atoms: _21  and  _22
REMARK   11  A    between atoms: _25  and  _27
REMARK   12  A    between atoms: _27  and  _28
REMARK   13  A    between atoms: _27  and  _30
REMARK   14  A    between atoms: _30  and  _31
REMARK   15  A    between atoms: _34  and  _36
REMARK   16  A    between atoms: _36  and  _37
REMARK   17  A    between atoms: _36  and  _39
REMARK   18  A    between atoms: _39  and  _40
REMARK   19  A    between atoms: _40  and  _41
REMARK   20  A    between atoms: _41  and  _42
REMARK   21  A    between atoms: _51  and  _53
REMARK   22  A    between atoms: _53  and  _54
REMARK   23  A    between atoms: _57  and  _58
REMARK   24  A    between atoms: _63  and  _65
REMARK   25  A    between atoms: _65  and  _66
REMARK   26  A    between atoms: _65  and  _68
REMARK   27  A    between atoms: _68  and  _69
REMARK   28  A    between atoms: _69  and  _70
REMARK   29  A    between atoms: _72  and  _74
REMARK   30  A    between atoms: _74  and  _75
REMARK   31  A    between atoms: _74  and  _77
REMARK   32  A    between atoms: _77  and  _78
REMARK   33  A    between atoms: _78  and  _79
REMARK   34  A    between atoms: _81  and  _83
REMARK   35  A    between atoms: _83  and  _84
REMARK   36  A    between atoms: _83  and  _86
REMARK   37  A    between atoms: _86  and  _87
REMARK   38  A    between atoms: _92  and  _94
REMARK   39  A    between atoms: _94  and  _95
REMARK   40  A    between atoms: _94  and  _97
REMARK   41  A    between atoms: _97  and  _98
REMARK   42  A    between atoms: _101  and  _103
REMARK   43  A    between atoms: _103  and  _104
REMARK   44  A    between atoms: _103  and  _106
REMARK   45  A    between atoms: _106  and  _107
REMARK   46  A    between atoms: _109  and  _111
REMARK   47  A    between atoms: _111  and  _112
REMARK   48  A    between atoms: _111  and  _114
REMARK   49  A    between atoms: _114  and  _115
REMARK   50  A    between atoms: _115  and  _116
REMARK   51  A    between atoms: _116  and  _117
REMARK   52  A    between atoms: _117  and  _118
REMARK   53  A    between atoms: _122  and  _124
REMARK   54  A    between atoms: _124  and  _125
REMARK   55  A    between atoms: _124  and  _127
REMARK   56  A    between atoms: _127  and  _128
REMARK   57  A    between atoms: _131  and  _133
REMARK   58  A    between atoms: _133  and  _134
REMARK   59  A    between atoms: _133  and  _136
REMARK   60  A    between atoms: _136  and  _137
REMARK   61  A    between atoms: _137  and  _138
REMARK   62  A    between atoms: _141  and  _143
REMARK   63  A    between atoms: _143  and  _144
REMARK   64  A    between atoms: _147  and  _149
REMARK   65  A    between atoms: _149  and  _150
REMARK   66  A    between atoms: _149  and  _152
REMARK   67  A    between atoms: _155  and  _157
REMARK   68  A    between atoms: _157  and  _158
REMARK   69  A    between atoms: _157  and  _160
REMARK   70  A    between atoms: _160  and  _161
REMARK   71  A    between atoms: _163  and  _165
REMARK   72  A    between atoms: _165  and  _166
REMARK   73  A    between atoms: _168  and  _170
REMARK   74  A    between atoms: _170  and  _171
REMARK   75  A    between atoms: _170  and  _173
REMARK   76  A    between atoms: _173  and  _174
REMARK   77  A    between atoms: _179  and  _181
REMARK   78  A    between atoms: _181  and  _182
REMARK   79  A    between atoms: _181  and  _184
REMARK   80  A    between atoms: _184  and  _185
REMARK   81  A    between atoms: _190  and  _191
REMARK   82  A    between atoms: _193  and  _195
REMARK   83  A    between atoms: _195  and  _196
REMARK   84  A    between atoms: _195  and  _198
REMARK   85  A    between atoms: _200  and  _202
REMARK   86  A    between atoms: _202  and  _203
REMARK   87  A    between atoms: _202  and  _205
REMARK   88  A    between atoms: _205  and  _206
REMARK   89  A    between atoms: _209  and  _211
REMARK   90  A    between atoms: _211  and  _212
REMARK   91  A    between atoms: _211  and  _214
REMARK   92  A    between atoms: _214  and  _215
REMARK   93  A    between atoms: _218  and  _220
REMARK   94  A    between atoms: _220  and  _221
REMARK   95  A    between atoms: _220  and  _223
REMARK   96  A    between atoms: _223  and  _224
REMARK   97  A    between atoms: _224  and  _225
REMARK   98  A    between atoms: _225  and  _226
REMARK   99  A    between atoms: _226  and  _227
REMARK  100  A    between atoms: _231  and  _233
REMARK  101  A    between atoms: _233  and  _234
REMARK  102  A    between atoms: _233  and  _236
REMARK  103  A    between atoms: _236  and  _237
REMARK  104  A    between atoms: _237  and  _238
REMARK  105  A    between atoms: _238  and  _239
REMARK  106  A    between atoms: _239  and  _240
REMARK  107  A    between atoms: _244  and  _246
REMARK  108  A    between atoms: _246  and  _247
REMARK  109  A    between atoms: _246  and  _249
REMARK  110  A    between atoms: _249  and  _250
REMARK  111  A    between atoms: _250  and  _251
REMARK  112  A    between atoms: _251  and  _252
REMARK  113  A    between atoms: _261  and  _263
REMARK  114  A    between atoms: _263  and  _264
REMARK  115  A    between atoms: _263  and  _266
REMARK  116  A    between atoms: _266  and  _267
REMARK  117  A    between atoms: _270  and  _272
REMARK  118  A    between atoms: _272  and  _273
REMARK  119  A    between atoms: _276  and  _278
REMARK  120  A    between atoms: _278  and  _279
REMARK  121  A    between atoms: _278  and  _281
REMARK  122  A    between atoms: _281  and  _282
REMARK  123  A    between atoms: _282  and  _283
REMARK  124  A    between atoms: _288  and  _290
REMARK  125  A    between atoms: _290  and  _291
REMARK  126  A    between atoms: _290  and  _293
REMARK  127  A    between atoms: _293  and  _294
REMARK  128  A    between atoms: _294  and  _295
REMARK  129  A    between atoms: _298  and  _300
REMARK  130  A    between atoms: _300  and  _301
REMARK  131  A    between atoms: _303  and  _305
REMARK  132  A    between atoms: _305  and  _306
REMARK  133  A    between atoms: _305  and  _308
REMARK  134  A    between atoms: _310  and  _312
REMARK  135  A    between atoms: _312  and  _313
REMARK  136  A    between atoms: _312  and  _315
REMARK  137  A    between atoms: _315  and  _316
REMARK  138  A    between atoms: _319  and  _321
REMARK  139  A    between atoms: _321  and  _322
REMARK  140  A    between atoms: _321  and  _324
REMARK  141  A    between atoms: _327  and  _329
REMARK  142  A    between atoms: _329  and  _330
REMARK  143  A    between atoms: _333  and  _335
REMARK  144  A    between atoms: _335  and  _336
REMARK  145  A    between atoms: _335  and  _338
REMARK  146  A    between atoms: _338  and  _339
REMARK  147  A    between atoms: _341  and  _343
REMARK  148  A    between atoms: _343  and  _344
REMARK  149  A    between atoms: _343  and  _346
REMARK  150  A    between atoms: _346  and  _347
REMARK  151  A    between atoms: _350  and  _352
REMARK  152  A    between atoms: _352  and  _353
REMARK  153  A    between atoms: _352  and  _355
REMARK  154  A    between atoms: _355  and  _356
REMARK  155  A    between atoms: _361  and  _363
REMARK  156  A    between atoms: _363  and  _364
REMARK  157  A    between atoms: _363  and  _366
REMARK  158  A    between atoms: _366  and  _367
REMARK  159  A    between atoms: _367  and  _368
REMARK  160  A    between atoms: _368  and  _369
REMARK  161  A    between atoms: _378  and  _380
REMARK  162  A    between atoms: _380  and  _381
REMARK  163  A    between atoms: _383  and  _385
REMARK  164  A    between atoms: _385  and  _386
REMARK  165  A    between atoms: _385  and  _388
REMARK  166  A    between atoms: _391  and  _393
REMARK  167  A    between atoms: _393  and  _394
REMARK  168  A    between atoms: _393  and  _396
REMARK  169  A    between atoms: _396  and  _397
REMARK  170  A    between atoms: _400  and  _402
REMARK  171  A    between atoms: _402  and  _403
REMARK  172  A    between atoms: _402  and  _405
REMARK  173  A    between atoms: _405  and  _406
REMARK  174  A    between atoms: _406  and  _407
REMARK  175  A    between atoms: _407  and  _408
REMARK  176  A    between atoms: _408  and  _409
REMARK  177  A    between atoms: _413  and  _415
REMARK  178  A    between atoms: _415  and  _416
REMARK  179  A    between atoms: _415  and  _418
REMARK  180  A    between atoms: _418  and  _419
REMARK  181  A    between atoms: _419  and  _420
REMARK  182  A    between atoms: _420  and  _421
REMARK  183  A    between atoms: _421  and  _422
REMARK  184  A    between atoms: _426  and  _428
REMARK  185  A    between atoms: _428  and  _429
REMARK  186  A    between atoms: _428  and  _431
REMARK  187  A    between atoms: _431  and  _432
REMARK  188  A    between atoms: _437  and  _439
REMARK  189  A    between atoms: _439  and  _440
REMARK  190  A    between atoms: _439  and  _442
REMARK  191  A    between atoms: _442  and  _443
REMARK  192  A    between atoms: _448  and  _450
REMARK  193  A    between atoms: _450  and  _451
REMARK  194  A    between atoms: _454  and  _456
REMARK  195  A    between atoms: _456  and  _457
REMARK  196  A    between atoms: _456  and  _459
REMARK  197  A    between atoms: _459  and  _460
REMARK  198  A    between atoms: _465  and  _467
REMARK  199  A    between atoms: _467  and  _468
REMARK  200  A    between atoms: _471  and  _473
REMARK  201  A    between atoms: _473  and  _474
REMARK  202  A    between atoms: _477  and  _479
REMARK  203  A    between atoms: _479  and  _480
REMARK  204  A    between atoms: _479  and  _482
REMARK  205  A    between atoms: _482  and  _483
REMARK  206  A    between atoms: _488  and  _490
REMARK  207  A    between atoms: _490  and  _491
REMARK  208  A    between atoms: _490  and  _493
REMARK  209  A    between atoms: _493  and  _494
REMARK  210  A    between atoms: _497  and  _499
REMARK  211  A    between atoms: _499  and  _500
REMARK  212  A    between atoms: _502  and  _504
REMARK  213  A    between atoms: _504  and  _505
REMARK  214  A    between atoms: _504  and  _507
REMARK  215  A    between atoms: _507  and  _508
REMARK  216  A    between atoms: _508  and  _509
REMARK  217  A    between atoms: _512  and  _514
REMARK  218  A    between atoms: _514  and  _515
REMARK  219  A    between atoms: _514  and  _517
REMARK  220  A    between atoms: _517  and  _518
REMARK  221  A    between atoms: _521  and  _523
REMARK  222  A    between atoms: _523  and  _524
REMARK  223  A    between atoms: _523  and  _526
REMARK  224  A    between atoms: _526  and  _527
REMARK  225  A    between atoms: _529  and  _531
REMARK  226  A    between atoms: _531  and  _532
REMARK  227  A    between atoms: _531  and  _534
REMARK  228  A    between atoms: _534  and  _535
REMARK  229  A    between atoms: _538  and  _540
REMARK  230  A    between atoms: _540  and  _541
REMARK  231  A    between atoms: _540  and  _543
REMARK  232  A    between atoms: _543  and  _544
REMARK  233  A    between atoms: _544  and  _545
REMARK  234  A    between atoms: _547  and  _549
REMARK  235  A    between atoms: _549  and  _550
REMARK  236  A    between atoms: _553  and  _555
REMARK  237  A    between atoms: _555  and  _556
REMARK  238  A    between atoms: _559  and  _561
REMARK  239  A    between atoms: _561  and  _562
REMARK  240  A    between atoms: _561  and  _564
REMARK  241  A    between atoms: _564  and  _565
REMARK  242  A    between atoms: _568  and  _570
REMARK  243  A    between atoms: _570  and  _571
REMARK  244  A    between atoms: _574  and  _576
REMARK  245  A    between atoms: _576  and  _577
REMARK  246  A    between atoms: _580  and  _582
REMARK  247  A    between atoms: _582  and  _583
REMARK  248  A    between atoms: _585  and  _587
REMARK  249  A    between atoms: _587  and  _588
REMARK  250  A    between atoms: _587  and  _590
REMARK  251  A    between atoms: _590  and  _591
REMARK                            x       y       z     vdW  Elec       q    Type
REMARK                         _______ _______ _______ _____ _____    ______ ____
ROOT
ATOM      1  O   HOH     1      27.773  24.603  18.783  0.00  0.00    +0.000 OA
ENDROOT
TORSDOF 0
REMARK  Name = ../refined-set-2016/3cda/3cda_pocket.pdb
REMARK  251 active torsions:
REMARK  status: ('A' for Active; 'I' for Inactive)
REMARK    1  A    between atoms: _1  and  _3
REMARK    2  A    between atoms: _3  and  _4
REMARK    3  A    between atoms: _3  and  _6
REMARK    4  A    between atoms: _6  and  _7
REMARK    5  A    between atoms: _12  and  _13
REMARK    6  A    between atoms: _15  and  _17
REMARK    7  A    between atoms: _17  and  _18
REMARK    8  A    between atoms: _17  and  _20
REMARK    9  A    between atoms: _20  and  _21
REMARK   10  A    between atoms: _21  and  _22
REMARK   11  A    between atoms: _25  and  _27
REMARK   12  A    between atoms: _27  and  _28
REMARK   13  A    between atoms: _27  and  _30
REMARK   14  A    between atoms: _30  and  _31
REMARK   15  A    between atoms: _34  and  _36
REMARK   16  A    between atoms: _36  and  _37
REMARK   17  A    between atoms: _36  and  _39
REMARK   18  A    between atoms: _39  and  _40
REMARK   19  A    between atoms: _40  and  _41
REMARK   20  A    between atoms: _41  and  _42
REMARK   21  A    between atoms: _51  and  _53
REMARK   22  A    between atoms: _53  and  _54
REMARK   23  A    between atoms: _57  and  _58
REMARK   24  A    between atoms: _63  and  _65
REMARK   25  A    between atoms: _65  and  _66
REMARK   26  A    between atoms: _65  and  _68
REMARK   27  A    between atoms: _68  and  _69
REMARK   28  A    between atoms: _69  and  _70
REMARK   29  A    between atoms: _72  and  _74
REMARK   30  A    between atoms: _74  and  _75
REMARK   31  A    between atoms: _74  and  _77
REMARK   32  A    between atoms: _77  and  _78
REMARK   33  A    between atoms: _78  and  _79
REMARK   34  A    between atoms: _81  and  _83
REMARK   35  A    between atoms: _83  and  _84
REMARK   36  A    between atoms: _83  and  _86
REMARK   37  A    between atoms: _86  and  _87
REMARK   38  A    between atoms: _92  and  _94
REMARK   39  A    between atoms: _94  and  _95
REMARK   40  A    between atoms: _94  and  _97
REMARK   41  A    between atoms: _97  and  _98
REMARK   42  A    between atoms: _101  and  _103
REMARK   43  A    between atoms: _103  and  _104
REMARK   44  A    between atoms: _103  and  _106
REMARK   45  A    between atoms: _106  and  _107
REMARK   46  A    between atoms: _109  and  _111
REMARK   47  A    between atoms: _111  and  _112
REMARK   48  A    between atoms: _111  and  _114
REMARK   49  A    between atoms: _114  and  _115
REMARK   50  A    between atoms: _115  and  _116
REMARK   51  A    between atoms: _116  and  _117
REMARK   52  A    between atoms: _117  and  _118
REMARK   53  A    between atoms: _122  and  _124
REMARK   54  A    between atoms: _124  and  _125
REMARK   55  A    between atoms: _124  and  _127
REMARK   56  A    between atoms: _127  and  _128
REMARK   57  A    between atoms: _131  and  _133
REMARK   58  A    between atoms: _133  and  _134
REMARK   59  A    between atoms: _133  and  _136
REMARK   60  A    between atoms: _136  and  _137
REMARK   61  A    between atoms: _137  and  _138
REMARK   62  A    between atoms: _141  and  _143
REMARK   63  A    between atoms: _143  and  _144
REMARK   64  A    between atoms: _147  and  _149
REMARK   65  A    between atoms: _149  and  _150
REMARK   66  A    between atoms: _149  and  _152
REMARK   67  A    between atoms: _155  and  _157
REMARK   68  A    between atoms: _157  and  _158
REMARK   69  A    between atoms: _157  and  _160
REMARK   70  A    between atoms: _160  and  _161
REMARK   71  A    between atoms: _163  and  _165
REMARK   72  A    between atoms: _165  and  _166
REMARK   73  A    between atoms: _168  and  _170
REMARK   74  A    between atoms: _170  and  _171
REMARK   75  A    between atoms: _170  and  _173
REMARK   76  A    between atoms: _173  and  _174
REMARK   77  A    between atoms: _179  and  _181
REMARK   78  A    between atoms: _181  and  _182
REMARK   79  A    between atoms: _181  and  _184
REMARK   80  A    between atoms: _184  and  _185
REMARK   81  A    between atoms: _190  and  _191
REMARK   82  A    between atoms: _193  and  _195
REMARK   83  A    between atoms: _195  and  _196
REMARK   84  A    between atoms: _195  and  _198
REMARK   85  A    between atoms: _200  and  _202
REMARK   86  A    between atoms: _202  and  _203
REMARK   87  A    between atoms: _202  and  _205
REMARK   88  A    between atoms: _205  and  _206
REMARK   89  A    between atoms: _209  and  _211
REMARK   90  A    between atoms: _211  and  _212
REMARK   91  A    between atoms: _211  and  _214
REMARK   92  A    between atoms: _214  and  _215
REMARK   93  A    between atoms: _218  and  _220
REMARK   94  A    between atoms: _220  and  _221
REMARK   95  A    between atoms: _220  and  _223
REMARK   96  A    between atoms: _223  and  _224
REMARK   97  A    between atoms: _224  and  _225
REMARK   98  A    between atoms: _225  and  _226
REMARK   99  A    between atoms: _226  and  _227
REMARK  100  A    between atoms: _231  and  _233
REMARK  101  A    between atoms: _233  and  _234
REMARK  102  A    between atoms: _233  and  _236
REMARK  103  A    between atoms: _236  and  _237
REMARK  104  A    between atoms: _237  and  _238
REMARK  105  A    between atoms: _238  and  _239
REMARK  106  A    between atoms: _239  and  _240
REMARK  107  A    between atoms: _244  and  _246
REMARK  108  A    between atoms: _246  and  _247
REMARK  109  A    between atoms: _246  and  _249
REMARK  110  A    between atoms: _249  and  _250
REMARK  111  A    between atoms: _250  and  _251
REMARK  112  A    between atoms: _251  and  _252
REMARK  113  A    between atoms: _261  and  _263
REMARK  114  A    between atoms: _263  and  _264
REMARK  115  A    between atoms: _263  and  _266
REMARK  116  A    between atoms: _266  and  _267
REMARK  117  A    between atoms: _270  and  _272
REMARK  118  A    between atoms: _272  and  _273
REMARK  119  A    between atoms: _276  and  _278
REMARK  120  A    between atoms: _278  and  _279
REMARK  121  A    between atoms: _278  and  _281
REMARK  122  A    between atoms: _281  and  _282
REMARK  123  A    between atoms: _282  and  _283
REMARK  124  A    between atoms: _288  and  _290
REMARK  125  A    between atoms: _290  and  _291
REMARK  126  A    between atoms: _290  and  _293
REMARK  127  A    between atoms: _293  and  _294
REMARK  128  A    between atoms: _294  and  _295
REMARK  129  A    between atoms: _298  and  _300
REMARK  130  A    between atoms: _300  and  _301
REMARK  131  A    between atoms: _303  and  _305
REMARK  132  A    between atoms: _305  and  _306
REMARK  133  A    between atoms: _305  and  _308
REMARK  134  A    between atoms: _310  and  _312
REMARK  135  A    between atoms: _312  and  _313
REMARK  136  A    between atoms: _312  and  _315
REMARK  137  A    between atoms: _315  and  _316
REMARK  138  A    between atoms: _319  and  _321
REMARK  139  A    between atoms: _321  and  _322
REMARK  140  A    between atoms: _321  and  _324
REMARK  141  A    between atoms: _327  and  _329
REMARK  142  A    between atoms: _329  and  _330
REMARK  143  A    between atoms: _333  and  _335
REMARK  144  A    between atoms: _335  and  _336
REMARK  145  A    between atoms: _335  and  _338
REMARK  146  A    between atoms: _338  and  _339
REMARK  147  A    between atoms: _341  and  _343
REMARK  148  A    between atoms: _343  and  _344
REMARK  149  A    between atoms: _343  and  _346
REMARK  150  A    between atoms: _346  and  _347
REMARK  151  A    between atoms: _350  and  _352
REMARK  152  A    between atoms: _352  and  _353
REMARK  153  A    between atoms: _352  and  _355
REMARK  154  A    between atoms: _355  and  _356
REMARK  155  A    between atoms: _361  and  _363
REMARK  156  A    between atoms: _363  and  _364
REMARK  157  A    between atoms: _363  and  _366
REMARK  158  A    between atoms: _366  and  _367
REMARK  159  A    between atoms: _367  and  _368
REMARK  160  A    between atoms: _368  and  _369
REMARK  161  A    between atoms: _378  and  _380
REMARK  162  A    between atoms: _380  and  _381
REMARK  163  A    between atoms: _383  and  _385
REMARK  164  A    between atoms: _385  and  _386
REMARK  165  A    between atoms: _385  and  _388
REMARK  166  A    between atoms: _391  and  _393
REMARK  167  A    between atoms: _393  and  _394
REMARK  168  A    between atoms: _393  and  _396
REMARK  169  A    between atoms: _396  and  _397
REMARK  170  A    between atoms: _400  and  _402
REMARK  171  A    between atoms: _402  and  _403
REMARK  172  A    between atoms: _402  and  _405
REMARK  173  A    between atoms: _405  and  _406
REMARK  174  A    between atoms: _406  and  _407
REMARK  175  A    between atoms: _407  and  _408
REMARK  176  A    between atoms: _408  and  _409
REMARK  177  A    between atoms: _413  and  _415
REMARK  178  A    between atoms: _415  and  _416
REMARK  179  A    between atoms: _415  and  _418
REMARK  180  A    between atoms: _418  and  _419
REMARK  181  A    between atoms: _419  and  _420
REMARK  182  A    between atoms: _420  and  _421
REMARK  183  A    between atoms: _421  and  _422
REMARK  184  A    between atoms: _426  and  _428
REMARK  185  A    between atoms: _428  and  _429
REMARK  186  A    between atoms: _428  and  _431
REMARK  187  A    between atoms: _431  and  _432
REMARK  188  A    between atoms: _437  and  _439
REMARK  189  A    between atoms: _439  and  _440
REMARK  190  A    between atoms: _439  and  _442
REMARK  191  A    between atoms: _442  and  _443
REMARK  192  A    between atoms: _448  and  _450
REMARK  193  A    between atoms: _450  and  _451
REMARK  194  A    between atoms: _454  and  _456
REMARK  195  A    between atoms: _456  and  _457
REMARK  196  A    between atoms: _456  and  _459
REMARK  197  A    between atoms: _459  and  _460
REMARK  198  A    between atoms: _465  and  _467
REMARK  199  A    between atoms: _467  and  _468
REMARK  200  A    between atoms: _471  and  _473
REMARK  201  A    between atoms: _473  and  _474
REMARK  202  A    between atoms: _477  and  _479
REMARK  203  A    between atoms: _479  and  _480
REMARK  204  A    between atoms: _479  and  _482
REMARK  205  A    between atoms: _482  and  _483
REMARK  206  A    between atoms: _488  and  _490
REMARK  207  A    between atoms: _490  and  _491
REMARK  208  A    between atoms: _490  and  _493
REMARK  209  A    between atoms: _493  and  _494
REMARK  210  A    between atoms: _497  and  _499
REMARK  211  A    between atoms: _499  and  _500
REMARK  212  A    between atoms: _502  and  _504
REMARK  213  A    between atoms: _504  and  _505
REMARK  214  A    between atoms: _504  and  _507
REMARK  215  A    between atoms: _507  and  _508
REMARK  216  A    between atoms: _508  and  _509
REMARK  217  A    between atoms: _512  and  _514
REMARK  218  A    between atoms: _514  and  _515
REMARK  219  A    between atoms: _514  and  _517
REMARK  220  A    between atoms: _517  and  _518
REMARK  221  A    between atoms: _521  and  _523
REMARK  222  A    between atoms: _523  and  _524
REMARK  223  A    between atoms: _523  and  _526
REMARK  224  A    between atoms: _526  and  _527
REMARK  225  A    between atoms: _529  and  _531
REMARK  226  A    between atoms: _531  and  _532
REMARK  227  A    between atoms: _531  and  _534
REMARK  228  A    between atoms: _534  and  _535
REMARK  229  A    between atoms: _538  and  _540
REMARK  230  A    between atoms: _540  and  _541
REMARK  231  A    between atoms: _540  and  _543
REMARK  232  A    between atoms: _543  and  _544
REMARK  233  A    between atoms: _544  and  _545
REMARK  234  A    between atoms: _547  and  _549
REMARK  235  A    between atoms: _549  and  _550
REMARK  236  A    between atoms: _553  and  _555
REMARK  237  A    between atoms: _555  and  _556
REMARK  238  A    between atoms: _559  and  _561
REMARK  239  A    between atoms: _561  and  _562
REMARK  240  A    between atoms: _561  and  _564
REMARK  241  A    between atoms: _564  and  _565
REMARK  242  A    between atoms: _568  and  _570
REMARK  243  A    between atoms: _570  and  _571
REMARK  244  A    between atoms: _574  and  _576
REMARK  245  A    between atoms: _576  and  _577
REMARK  246  A    between atoms: _580  and  _582
REMARK  247  A    between atoms: _582  and  _583
REMARK  248  A    between atoms: _585  and  _587
REMARK  249  A    between atoms: _587  and  _588
REMARK  250  A    between atoms: _587  and  _590
REMARK  251  A    between atoms: _590  and  _591
REMARK                            x       y       z     vdW  Elec       q    Type
REMARK                         _______ _______ _______ _____ _____    ______ ____
ROOT
ATOM      1  O   HOH     1      19.859  21.344  23.483  0.00  0.00    +0.000 OA
ENDROOT
TORSDOF 0
REMARK  Name = ../refined-set-2016/3cda/3cda_pocket.pdb
REMARK  251 active torsions:
REMARK  status: ('A' for Active; 'I' for Inactive)
REMARK    1  A    between atoms: _1  and  _3
REMARK    2  A    between atoms: _3  and  _4
REMARK    3  A    between atoms: _3  and  _6
REMARK    4  A    between atoms: _6  and  _7
REMARK    5  A    between atoms: _12  and  _13
REMARK    6  A    between atoms: _15  and  _17
REMARK    7  A    between atoms: _17  and  _18
REMARK    8  A    between atoms: _17  and  _20
REMARK    9  A    between atoms: _20  and  _21
REMARK   10  A    between atoms: _21  and  _22
REMARK   11  A    between atoms: _25  and  _27
REMARK   12  A    between atoms: _27  and  _28
REMARK   13  A    between atoms: _27  and  _30
REMARK   14  A    between atoms: _30  and  _31
REMARK   15  A    between atoms: _34  and  _36
REMARK   16  A    between atoms: _36  and  _37
REMARK   17  A    between atoms: _36  and  _39
REMARK   18  A    between atoms: _39  and  _40
REMARK   19  A    between atoms: _40  and  _41
REMARK   20  A    between atoms: _41  and  _42
REMARK   21  A    between atoms: _51  and  _53
REMARK   22  A    between atoms: _53  and  _54
REMARK   23  A    between atoms: _57  and  _58
REMARK   24  A    between atoms: _63  and  _65
REMARK   25  A    between atoms: _65  and  _66
REMARK   26  A    between atoms: _65  and  _68
REMARK   27  A    between atoms: _68  and  _69
REMARK   28  A    between atoms: _69  and  _70
REMARK   29  A    between atoms: _72  and  _74
REMARK   30  A    between atoms: _74  and  _75
REMARK   31  A    between atoms: _74  and  _77
REMARK   32  A    between atoms: _77  and  _78
REMARK   33  A    between atoms: _78  and  _79
REMARK   34  A    between atoms: _81  and  _83
REMARK   35  A    between atoms: _83  and  _84
REMARK   36  A    between atoms: _83  and  _86
REMARK   37  A    between atoms: _86  and  _87
REMARK   38  A    between atoms: _92  and  _94
REMARK   39  A    between atoms: _94  and  _95
REMARK   40  A    between atoms: _94  and  _97
REMARK   41  A    between atoms: _97  and  _98
REMARK   42  A    between atoms: _101  and  _103
REMARK   43  A    between atoms: _103  and  _104
REMARK   44  A    between atoms: _103  and  _106
REMARK   45  A    between atoms: _106  and  _107
REMARK   46  A    between atoms: _109  and  _111
REMARK   47  A    between atoms: _111  and  _112
REMARK   48  A    between atoms: _111  and  _114
REMARK   49  A    between atoms: _114  and  _115
REMARK   50  A    between atoms: _115  and  _116
REMARK   51  A    between atoms: _116  and  _117
REMARK   52  A    between atoms: _117  and  _118
REMARK   53  A    between atoms: _122  and  _124
REMARK   54  A    between atoms: _124  and  _125
REMARK   55  A    between atoms: _124  and  _127
REMARK   56  A    between atoms: _127  and  _128
REMARK   57  A    between atoms: _131  and  _133
REMARK   58  A    between atoms: _133  and  _134
REMARK   59  A    between atoms: _133  and  _136
REMARK   60  A    between atoms: _136  and  _137
REMARK   61  A    between atoms: _137  and  _138
REMARK   62  A    between atoms: _141  and  _143
REMARK   63  A    between atoms: _143  and  _144
REMARK   64  A    between atoms: _147  and  _149
REMARK   65  A    between atoms: _149  and  _150
REMARK   66  A    between atoms: _149  and  _152
REMARK   67  A    between atoms: _155  and  _157
REMARK   68  A    between atoms: _157  and  _158
REMARK   69  A    between atoms: _157  and  _160
REMARK   70  A    between atoms: _160  and  _161
REMARK   71  A    between atoms: _163  and  _165
REMARK   72  A    between atoms: _165  and  _166
REMARK   73  A    between atoms: _168  and  _170
REMARK   74  A    between atoms: _170  and  _171
REMARK   75  A    between atoms: _170  and  _173
REMARK   76  A    between atoms: _173  and  _174
REMARK   77  A    between atoms: _179  and  _181
REMARK   78  A    between atoms: _181  and  _182
REMARK   79  A    between atoms: _181  and  _184
REMARK   80  A    between atoms: _184  and  _185
REMARK   81  A    between atoms: _190  and  _191
REMARK   82  A    between atoms: _193  and  _195
REMARK   83  A    between atoms: _195  and  _196
REMARK   84  A    between atoms: _195  and  _198
REMARK   85  A    between atoms: _200  and  _202
REMARK   86  A    between atoms: _202  and  _203
REMARK   87  A    between atoms: _202  and  _205
REMARK   88  A    between atoms: _205  and  _206
REMARK   89  A    between atoms: _209  and  _211
REMARK   90  A    between atoms: _211  and  _212
REMARK   91  A    between atoms: _211  and  _214
REMARK   92  A    between atoms: _214  and  _215
REMARK   93  A    between atoms: _218  and  _220
REMARK   94  A    between atoms: _220  and  _221
REMARK   95  A    between atoms: _220  and  _223
REMARK   96  A    between atoms: _223  and  _224
REMARK   97  A    between atoms: _224  and  _225
REMARK   98  A    between atoms: _225  and  _226
REMARK   99  A    between atoms: _226  and  _227
REMARK  100  A    between atoms: _231  and  _233
REMARK  101  A    between atoms: _233  and  _234
REMARK  102  A    between atoms: _233  and  _236
REMARK  103  A    between atoms: _236  and  _237
REMARK  104  A    between atoms: _237  and  _238
REMARK  105  A    between atoms: _238  and  _239
REMARK  106  A    between atoms: _239  and  _240
REMARK  107  A    between atoms: _244  and  _246
REMARK  108  A    between atoms: _246  and  _247
REMARK  109  A    between atoms: _246  and  _249
REMARK  110  A    between atoms: _249  and  _250
REMARK  111  A    between atoms: _250  and  _251
REMARK  112  A    between atoms: _251  and  _252
REMARK  113  A    between atoms: _261  and  _263
REMARK  114  A    between atoms: _263  and  _264
REMARK  115  A    between atoms: _263  and  _266
REMARK  116  A    between atoms: _266  and  _267
REMARK  117  A    between atoms: _270  and  _272
REMARK  118  A    between atoms: _272  and  _273
REMARK  119  A    between atoms: _276  and  _278
REMARK  120  A    between atoms: _278  and  _279
REMARK  121  A    between atoms: _278  and  _281
REMARK  122  A    between atoms: _281  and  _282
REMARK  123  A    between atoms: _282  and  _283
REMARK  124  A    between atoms: _288  and  _290
REMARK  125  A    between atoms: _290  and  _291
REMARK  126  A    between atoms: _290  and  _293
REMARK  127  A    between atoms: _293  and  _294
REMARK  128  A    between atoms: _294  and  _295
REMARK  129  A    between atoms: _298  and  _300
REMARK  130  A    between atoms: _300  and  _301
REMARK  131  A    between atoms: _303  and  _305
REMARK  132  A    between atoms: _305  and  _306
REMARK  133  A    between atoms: _305  and  _308
REMARK  134  A    between atoms: _310  and  _312
REMARK  135  A    between atoms: _312  and  _313
REMARK  136  A    between atoms: _312  and  _315
REMARK  137  A    between atoms: _315  and  _316
REMARK  138  A    between atoms: _319  and  _321
REMARK  139  A    between atoms: _321  and  _322
REMARK  140  A    between atoms: _321  and  _324
REMARK  141  A    between atoms: _327  and  _329
REMARK  142  A    between atoms: _329  and  _330
REMARK  143  A    between atoms: _333  and  _335
REMARK  144  A    between atoms: _335  and  _336
REMARK  145  A    between atoms: _335  and  _338
REMARK  146  A    between atoms: _338  and  _339
REMARK  147  A    between atoms: _341  and  _343
REMARK  148  A    between atoms: _343  and  _344
REMARK  149  A    between atoms: _343  and  _346
REMARK  150  A    between atoms: _346  and  _347
REMARK  151  A    between atoms: _350  and  _352
REMARK  152  A    between atoms: _352  and  _353
REMARK  153  A    between atoms: _352  and  _355
REMARK  154  A    between atoms: _355  and  _356
REMARK  155  A    between atoms: _361  and  _363
REMARK  156  A    between atoms: _363  and  _364
REMARK  157  A    between atoms: _363  and  _366
REMARK  158  A    between atoms: _366  and  _367
REMARK  159  A    between atoms: _367  and  _368
REMARK  160  A    between atoms: _368  and  _369
REMARK  161  A    between atoms: _378  and  _380
REMARK  162  A    between atoms: _380  and  _381
REMARK  163  A    between atoms: _383  and  _385
REMARK  164  A    between atoms: _385  and  _386
REMARK  165  A    between atoms: _385  and  _388
REMARK  166  A    between atoms: _391  and  _393
REMARK  167  A    between atoms: _393  and  _394
REMARK  168  A    between atoms: _393  and  _396
REMARK  169  A    between atoms: _396  and  _397
REMARK  170  A    between atoms: _400  and  _402
REMARK  171  A    between atoms: _402  and  _403
REMARK  172  A    between atoms: _402  and  _405
REMARK  173  A    between atoms: _405  and  _406
REMARK  174  A    between atoms: _406  and  _407
REMARK  175  A    between atoms: _407  and  _408
REMARK  176  A    between atoms: _408  and  _409
REMARK  177  A    between atoms: _413  and  _415
REMARK  178  A    between atoms: _415  and  _416
REMARK  179  A    between atoms: _415  and  _418
REMARK  180  A    between atoms: _418  and  _419
REMARK  181  A    between atoms: _419  and  _420
REMARK  182  A    between atoms: _420  and  _421
REMARK  183  A    between atoms: _421  and  _422
REMARK  184  A    between atoms: _426  and  _428
REMARK  185  A    between atoms: _428  and  _429
REMARK  186  A    between atoms: _428  and  _431
REMARK  187  A    between atoms: _431  and  _432
REMARK  188  A    between atoms: _437  and  _439
REMARK  189  A    between atoms: _439  and  _440
REMARK  190  A    between atoms: _439  and  _442
REMARK  191  A    between atoms: _442  and  _443
REMARK  192  A    between atoms: _448  and  _450
REMARK  193  A    between atoms: _450  and  _451
REMARK  194  A    between atoms: _454  and  _456
REMARK  195  A    between atoms: _456  and  _457
REMARK  196  A    between atoms: _456  and  _459
REMARK  197  A    between atoms: _459  and  _460
REMARK  198  A    between atoms: _465  and  _467
REMARK  199  A    between atoms: _467  and  _468
REMARK  200  A    between atoms: _471  and  _473
REMARK  201  A    between atoms: _473  and  _474
REMARK  202  A    between atoms: _477  and  _479
REMARK  203  A    between atoms: _479  and  _480
REMARK  204  A    between atoms: _479  and  _482
REMARK  205  A    between atoms: _482  and  _483
REMARK  206  A    between atoms: _488  and  _490
REMARK  207  A    between atoms: _490  and  _491
REMARK  208  A    between atoms: _490  and  _493
REMARK  209  A    between atoms: _493  and  _494
REMARK  210  A    between atoms: _497  and  _499
REMARK  211  A    between atoms: _499  and  _500
REMARK  212  A    between atoms: _502  and  _504
REMARK  213  A    between atoms: _504  and  _505
REMARK  214  A    between atoms: _504  and  _507
REMARK  215  A    between atoms: _507  and  _508
REMARK  216  A    between atoms: _508  and  _509
REMARK  217  A    between atoms: _512  and  _514
REMARK  218  A    between atoms: _514  and  _515
REMARK  219  A    between atoms: _514  and  _517
REMARK  220  A    between atoms: _517  and  _518
REMARK  221  A    between atoms: _521  and  _523
REMARK  222  A    between atoms: _523  and  _524
REMARK  223  A    between atoms: _523  and  _526
REMARK  224  A    between atoms: _526  and  _527
REMARK  225  A    between atoms: _529  and  _531
REMARK  226  A    between atoms: _531  and  _532
REMARK  227  A    between atoms: _531  and  _534
REMARK  228  A    between atoms: _534  and  _535
REMARK  229  A    between atoms: _538  and  _540
REMARK  230  A    between atoms: _540  and  _541
REMARK  231  A    between atoms: _540  and  _543
REMARK  232  A    between atoms: _543  and  _544
REMARK  233  A    between atoms: _544  and  _545
REMARK  234  A    between atoms: _547  and  _549
REMARK  235  A    between atoms: _549  and  _550
REMARK  236  A    between atoms: _553  and  _555
REMARK  237  A    between atoms: _555  and  _556
REMARK  238  A    between atoms: _559  and  _561
REMARK  239  A    between atoms: _561  and  _562
REMARK  240  A    between atoms: _561  and  _564
REMARK  241  A    between atoms: _564  and  _565
REMARK  242  A    between atoms: _568  and  _570
REMARK  243  A    between atoms: _570  and  _571
REMARK  244  A    between atoms: _574  and  _576
REMARK  245  A    between atoms: _576  and  _577
REMARK  246  A    between atoms: _580  and  _582
REMARK  247  A    between atoms: _582  and  _583
REMARK  248  A    between atoms: _585  and  _587
REMARK  249  A    between atoms: _587  and  _588
REMARK  250  A    between atoms: _587  and  _590
REMARK  251  A    between atoms: _590  and  _591
REMARK                            x       y       z     vdW  Elec       q    Type
REMARK                         _______ _______ _______ _____ _____    ______ ____
ROOT
ATOM      1  O   HOH     1      13.570  24.070   3.707  0.00  0.00    +0.000 OA
ENDROOT
TORSDOF 0
REMARK  Name = ../refined-set-2016/3cda/3cda_pocket.pdb
REMARK  251 active torsions:
REMARK  status: ('A' for Active; 'I' for Inactive)
REMARK    1  A    between atoms: _1  and  _3
REMARK    2  A    between atoms: _3  and  _4
REMARK    3  A    between atoms: _3  and  _6
REMARK    4  A    between atoms: _6  and  _7
REMARK    5  A    between atoms: _12  and  _13
REMARK    6  A    between atoms: _15  and  _17
REMARK    7  A    between atoms: _17  and  _18
REMARK    8  A    between atoms: _17  and  _20
REMARK    9  A    between atoms: _20  and  _21
REMARK   10  A    between atoms: _21  and  _22
REMARK   11  A    between atoms: _25  and  _27
REMARK   12  A    between atoms: _27  and  _28
REMARK   13  A    between atoms: _27  and  _30
REMARK   14  A    between atoms: _30  and  _31
REMARK   15  A    between atoms: _34  and  _36
REMARK   16  A    between atoms: _36  and  _37
REMARK   17  A    between atoms: _36  and  _39
REMARK   18  A    between atoms: _39  and  _40
REMARK   19  A    between atoms: _40  and  _41
REMARK   20  A    between atoms: _41  and  _42
REMARK   21  A    between atoms: _51  and  _53
REMARK   22  A    between atoms: _53  and  _54
REMARK   23  A    between atoms: _57  and  _58
REMARK   24  A    between atoms: _63  and  _65
REMARK   25  A    between atoms: _65  and  _66
REMARK   26  A    between atoms: _65  and  _68
REMARK   27  A    between atoms: _68  and  _69
REMARK   28  A    between atoms: _69  and  _70
REMARK   29  A    between atoms: _72  and  _74
REMARK   30  A    between atoms: _74  and  _75
REMARK   31  A    between atoms: _74  and  _77
REMARK   32  A    between atoms: _77  and  _78
REMARK   33  A    between atoms: _78  and  _79
REMARK   34  A    between atoms: _81  and  _83
REMARK   35  A    between atoms: _83  and  _84
REMARK   36  A    between atoms: _83  and  _86
REMARK   37  A    between atoms: _86  and  _87
REMARK   38  A    between atoms: _92  and  _94
REMARK   39  A    between atoms: _94  and  _95
REMARK   40  A    between atoms: _94  and  _97
REMARK   41  A    between atoms: _97  and  _98
REMARK   42  A    between atoms: _101  and  _103
REMARK   43  A    between atoms: _103  and  _104
REMARK   44  A    between atoms: _103  and  _106
REMARK   45  A    between atoms: _106  and  _107
REMARK   46  A    between atoms: _109  and  _111
REMARK   47  A    between atoms: _111  and  _112
REMARK   48  A    between atoms: _111  and  _114
REMARK   49  A    between atoms: _114  and  _115
REMARK   50  A    between atoms: _115  and  _116
REMARK   51  A    between atoms: _116  and  _117
REMARK   52  A    between atoms: _117  and  _118
REMARK   53  A    between atoms: _122  and  _124
REMARK   54  A    between atoms: _124  and  _125
REMARK   55  A    between atoms: _124  and  _127
REMARK   56  A    between atoms: _127  and  _128
REMARK   57  A    between atoms: _131  and  _133
REMARK   58  A    between atoms: _133  and  _134
REMARK   59  A    between atoms: _133  and  _136
REMARK   60  A    between atoms: _136  and  _137
REMARK   61  A    between atoms: _137  and  _138
REMARK   62  A    between atoms: _141  and  _143
REMARK   63  A    between atoms: _143  and  _144
REMARK   64  A    between atoms: _147  and  _149
REMARK   65  A    between atoms: _149  and  _150
REMARK   66  A    between atoms: _149  and  _152
REMARK   67  A    between atoms: _155  and  _157
REMARK   68  A    between atoms: _157  and  _158
REMARK   69  A    between atoms: _157  and  _160
REMARK   70  A    between atoms: _160  and  _161
REMARK   71  A    between atoms: _163  and  _165
REMARK   72  A    between atoms: _165  and  _166
REMARK   73  A    between atoms: _168  and  _170
REMARK   74  A    between atoms: _170  and  _171
REMARK   75  A    between atoms: _170  and  _173
REMARK   76  A    between atoms: _173  and  _174
REMARK   77  A    between atoms: _179  and  _181
REMARK   78  A    between atoms: _181  and  _182
REMARK   79  A    between atoms: _181  and  _184
REMARK   80  A    between atoms: _184  and  _185
REMARK   81  A    between atoms: _190  and  _191
REMARK   82  A    between atoms: _193  and  _195
REMARK   83  A    between atoms: _195  and  _196
REMARK   84  A    between atoms: _195  and  _198
REMARK   85  A    between atoms: _200  and  _202
REMARK   86  A    between atoms: _202  and  _203
REMARK   87  A    between atoms: _202  and  _205
REMARK   88  A    between atoms: _205  and  _206
REMARK   89  A    between atoms: _209  and  _211
REMARK   90  A    between atoms: _211  and  _212
REMARK   91  A    between atoms: _211  and  _214
REMARK   92  A    between atoms: _214  and  _215
REMARK   93  A    between atoms: _218  and  _220
REMARK   94  A    between atoms: _220  and  _221
REMARK   95  A    between atoms: _220  and  _223
REMARK   96  A    between atoms: _223  and  _224
REMARK   97  A    between atoms: _224  and  _225
REMARK   98  A    between atoms: _225  and  _226
REMARK   99  A    between atoms: _226  and  _227
REMARK  100  A    between atoms: _231  and  _233
REMARK  101  A    between atoms: _233  and  _234
REMARK  102  A    between atoms: _233  and  _236
REMARK  103  A    between atoms: _236  and  _237
REMARK  104  A    between atoms: _237  and  _238
REMARK  105  A    between atoms: _238  and  _239
REMARK  106  A    between atoms: _239  and  _240
REMARK  107  A    between atoms: _244  and  _246
REMARK  108  A    between atoms: _246  and  _247
REMARK  109  A    between atoms: _246  and  _249
REMARK  110  A    between atoms: _249  and  _250
REMARK  111  A    between atoms: _250  and  _251
REMARK  112  A    between atoms: _251  and  _252
REMARK  113  A    between atoms: _261  and  _263
REMARK  114  A    between atoms: _263  and  _264
REMARK  115  A    between atoms: _263  and  _266
REMARK  116  A    between atoms: _266  and  _267
REMARK  117  A    between atoms: _270  and  _272
REMARK  118  A    between atoms: _272  and  _273
REMARK  119  A    between atoms: _276  and  _278
REMARK  120  A    between atoms: _278  and  _279
REMARK  121  A    between atoms: _278  and  _281
REMARK  122  A    between atoms: _281  and  _282
REMARK  123  A    between atoms: _282  and  _283
REMARK  124  A    between atoms: _288  and  _290
REMARK  125  A    between atoms: _290  and  _291
REMARK  126  A    between atoms: _290  and  _293
REMARK  127  A    between atoms: _293  and  _294
REMARK  128  A    between atoms: _294  and  _295
REMARK  129  A    between atoms: _298  and  _300
REMARK  130  A    between atoms: _300  and  _301
REMARK  131  A    between atoms: _303  and  _305
REMARK  132  A    between atoms: _305  and  _306
REMARK  133  A    between atoms: _305  and  _308
REMARK  134  A    between atoms: _310  and  _312
REMARK  135  A    between atoms: _312  and  _313
REMARK  136  A    between atoms: _312  and  _315
REMARK  137  A    between atoms: _315  and  _316
REMARK  138  A    between atoms: _319  and  _321
REMARK  139  A    between atoms: _321  and  _322
REMARK  140  A    between atoms: _321  and  _324
REMARK  141  A    between atoms: _327  and  _329
REMARK  142  A    between atoms: _329  and  _330
REMARK  143  A    between atoms: _333  and  _335
REMARK  144  A    between atoms: _335  and  _336
REMARK  145  A    between atoms: _335  and  _338
REMARK  146  A    between atoms: _338  and  _339
REMARK  147  A    between atoms: _341  and  _343
REMARK  148  A    between atoms: _343  and  _344
REMARK  149  A    between atoms: _343  and  _346
REMARK  150  A    between atoms: _346  and  _347
REMARK  151  A    between atoms: _350  and  _352
REMARK  152  A    between atoms: _352  and  _353
REMARK  153  A    between atoms: _352  and  _355
REMARK  154  A    between atoms: _355  and  _356
REMARK  155  A    between atoms: _361  and  _363
REMARK  156  A    between atoms: _363  and  _364
REMARK  157  A    between atoms: _363  and  _366
REMARK  158  A    between atoms: _366  and  _367
REMARK  159  A    between atoms: _367  and  _368
REMARK  160  A    between atoms: _368  and  _369
REMARK  161  A    between atoms: _378  and  _380
REMARK  162  A    between atoms: _380  and  _381
REMARK  163  A    between atoms: _383  and  _385
REMARK  164  A    between atoms: _385  and  _386
REMARK  165  A    between atoms: _385  and  _388
REMARK  166  A    between atoms: _391  and  _393
REMARK  167  A    between atoms: _393  and  _394
REMARK  168  A    between atoms: _393  and  _396
REMARK  169  A    between atoms: _396  and  _397
REMARK  170  A    between atoms: _400  and  _402
REMARK  171  A    between atoms: _402  and  _403
REMARK  172  A    between atoms: _402  and  _405
REMARK  173  A    between atoms: _405  and  _406
REMARK  174  A    between atoms: _406  and  _407
REMARK  175  A    between atoms: _407  and  _408
REMARK  176  A    between atoms: _408  and  _409
REMARK  177  A    between atoms: _413  and  _415
REMARK  178  A    between atoms: _415  and  _416
REMARK  179  A    between atoms: _415  and  _418
REMARK  180  A    between atoms: _418  and  _419
REMARK  181  A    between atoms: _419  and  _420
REMARK  182  A    between atoms: _420  and  _421
REMARK  183  A    between atoms: _421  and  _422
REMARK  184  A    between atoms: _426  and  _428
REMARK  185  A    between atoms: _428  and  _429
REMARK  186  A    between atoms: _428  and  _431
REMARK  187  A    between atoms: _431  and  _432
REMARK  188  A    between atoms: _437  and  _439
REMARK  189  A    between atoms: _439  and  _440
REMARK  190  A    between atoms: _439  and  _442
REMARK  191  A    between atoms: _442  and  _443
REMARK  192  A    between atoms: _448  and  _450
REMARK  193  A    between atoms: _450  and  _451
REMARK  194  A    between atoms: _454  and  _456
REMARK  195  A    between atoms: _456  and  _457
REMARK  196  A    between atoms: _456  and  _459
REMARK  197  A    between atoms: _459  and  _460
REMARK  198  A    between atoms: _465  and  _467
REMARK  199  A    between atoms: _467  and  _468
REMARK  200  A    between atoms: _471  and  _473
REMARK  201  A    between atoms: _473  and  _474
REMARK  202  A    between atoms: _477  and  _479
REMARK  203  A    between atoms: _479  and  _480
REMARK  204  A    between atoms: _479  and  _482
REMARK  205  A    between atoms: _482  and  _483
REMARK  206  A    between atoms: _488  and  _490
REMARK  207  A    between atoms: _490  and  _491
REMARK  208  A    between atoms: _490  and  _493
REMARK  209  A    between atoms: _493  and  _494
REMARK  210  A    between atoms: _497  and  _499
REMARK  211  A    between atoms: _499  and  _500
REMARK  212  A    between atoms: _502  and  _504
REMARK  213  A    between atoms: _504  and  _505
REMARK  214  A    between atoms: _504  and  _507
REMARK  215  A    between atoms: _507  and  _508
REMARK  216  A    between atoms: _508  and  _509
REMARK  217  A    between atoms: _512  and  _514
REMARK  218  A    between atoms: _514  and  _515
REMARK  219  A    between atoms: _514  and  _517
REMARK  220  A    between atoms: _517  and  _518
REMARK  221  A    between atoms: _521  and  _523
REMARK  222  A    between atoms: _523  and  _524
REMARK  223  A    between atoms: _523  and  _526
REMARK  224  A    between atoms: _526  and  _527
REMARK  225  A    between atoms: _529  and  _531
REMARK  226  A    between atoms: _531  and  _532
REMARK  227  A    between atoms: _531  and  _534
REMARK  228  A    between atoms: _534  and  _535
REMARK  229  A    between atoms: _538  and  _540
REMARK  230  A    between atoms: _540  and  _541
REMARK  231  A    between atoms: _540  and  _543
REMARK  232  A    between atoms: _543  and  _544
REMARK  233  A    between atoms: _544  and  _545
REMARK  234  A    between atoms: _547  and  _549
REMARK  235  A    between atoms: _549  and  _550
REMARK  236  A    between atoms: _553  and  _555
REMARK  237  A    between atoms: _555  and  _556
REMARK  238  A    between atoms: _559  and  _561
REMARK  239  A    between atoms: _561  and  _562
REMARK  240  A    between atoms: _561  and  _564
REMARK  241  A    between atoms: _564  and  _565
REMARK  242  A    between atoms: _568  and  _570
REMARK  243  A    between atoms: _570  and  _571
REMARK  244  A    between atoms: _574  and  _576
REMARK  245  A    between atoms: _576  and  _577
REMARK  246  A    between atoms: _580  and  _582
REMARK  247  A    between atoms: _582  and  _583
REMARK  248  A    between atoms: _585  and  _587
REMARK  249  A    between atoms: _587  and  _588
REMARK  250  A    between atoms: _587  and  _590
REMARK  251  A    between atoms: _590  and  _591
REMARK                            x       y       z     vdW  Elec       q    Type
REMARK                         _______ _______ _______ _____ _____    ______ ____
ROOT
ATOM      1  O   HOH     1      32.628  27.398  14.392  0.00  0.00    +0.000 OA
ENDROOT
TORSDOF 0
REMARK  Name = ../refined-set-2016/3cda/3cda_pocket.pdb
REMARK  251 active torsions:
REMARK  status: ('A' for Active; 'I' for Inactive)
REMARK    1  A    between atoms: _1  and  _3
REMARK    2  A    between atoms: _3  and  _4
REMARK    3  A    between atoms: _3  and  _6
REMARK    4  A    between atoms: _6  and  _7
REMARK    5  A    between atoms: _12  and  _13
REMARK    6  A    between atoms: _15  and  _17
REMARK    7  A    between atoms: _17  and  _18
REMARK    8  A    between atoms: _17  and  _20
REMARK    9  A    between atoms: _20  and  _21
REMARK   10  A    between atoms: _21  and  _22
REMARK   11  A    between atoms: _25  and  _27
REMARK   12  A    between atoms: _27  and  _28
REMARK   13  A    between atoms: _27  and  _30
REMARK   14  A    between atoms: _30  and  _31
REMARK   15  A    between atoms: _34  and  _36
REMARK   16  A    between atoms: _36  and  _37
REMARK   17  A    between atoms: _36  and  _39
REMARK   18  A    between atoms: _39  and  _40
REMARK   19  A    between atoms: _40  and  _41
REMARK   20  A    between atoms: _41  and  _42
REMARK   21  A    between atoms: _51  and  _53
REMARK   22  A    between atoms: _53  and  _54
REMARK   23  A    between atoms: _57  and  _58
REMARK   24  A    between atoms: _63  and  _65
REMARK   25  A    between atoms: _65  and  _66
REMARK   26  A    between atoms: _65  and  _68
REMARK   27  A    between atoms: _68  and  _69
REMARK   28  A    between atoms: _69  and  _70
REMARK   29  A    between atoms: _72  and  _74
REMARK   30  A    between atoms: _74  and  _75
REMARK   31  A    between atoms: _74  and  _77
REMARK   32  A    between atoms: _77  and  _78
REMARK   33  A    between atoms: _78  and  _79
REMARK   34  A    between atoms: _81  and  _83
REMARK   35  A    between atoms: _83  and  _84
REMARK   36  A    between atoms: _83  and  _86
REMARK   37  A    between atoms: _86  and  _87
REMARK   38  A    between atoms: _92  and  _94
REMARK   39  A    between atoms: _94  and  _95
REMARK   40  A    between atoms: _94  and  _97
REMARK   41  A    between atoms: _97  and  _98
REMARK   42  A    between atoms: _101  and  _103
REMARK   43  A    between atoms: _103  and  _104
REMARK   44  A    between atoms: _103  and  _106
REMARK   45  A    between atoms: _106  and  _107
REMARK   46  A    between atoms: _109  and  _111
REMARK   47  A    between atoms: _111  and  _112
REMARK   48  A    between atoms: _111  and  _114
REMARK   49  A    between atoms: _114  and  _115
REMARK   50  A    between atoms: _115  and  _116
REMARK   51  A    between atoms: _116  and  _117
REMARK   52  A    between atoms: _117  and  _118
REMARK   53  A    between atoms: _122  and  _124
REMARK   54  A    between atoms: _124  and  _125
REMARK   55  A    between atoms: _124  and  _127
REMARK   56  A    between atoms: _127  and  _128
REMARK   57  A    between atoms: _131  and  _133
REMARK   58  A    between atoms: _133  and  _134
REMARK   59  A    between atoms: _133  and  _136
REMARK   60  A    between atoms: _136  and  _137
REMARK   61  A    between atoms: _137  and  _138
REMARK   62  A    between atoms: _141  and  _143
REMARK   63  A    between atoms: _143  and  _144
REMARK   64  A    between atoms: _147  and  _149
REMARK   65  A    between atoms: _149  and  _150
REMARK   66  A    between atoms: _149  and  _152
REMARK   67  A    between atoms: _155  and  _157
REMARK   68  A    between atoms: _157  and  _158
REMARK   69  A    between atoms: _157  and  _160
REMARK   70  A    between atoms: _160  and  _161
REMARK   71  A    between atoms: _163  and  _165
REMARK   72  A    between atoms: _165  and  _166
REMARK   73  A    between atoms: _168  and  _170
REMARK   74  A    between atoms: _170  and  _171
REMARK   75  A    between atoms: _170  and  _173
REMARK   76  A    between atoms: _173  and  _174
REMARK   77  A    between atoms: _179  and  _181
REMARK   78  A    between atoms: _181  and  _182
REMARK   79  A    between atoms: _181  and  _184
REMARK   80  A    between atoms: _184  and  _185
REMARK   81  A    between atoms: _190  and  _191
REMARK   82  A    between atoms: _193  and  _195
REMARK   83  A    between atoms: _195  and  _196
REMARK   84  A    between atoms: _195  and  _198
REMARK   85  A    between atoms: _200  and  _202
REMARK   86  A    between atoms: _202  and  _203
REMARK   87  A    between atoms: _202  and  _205
REMARK   88  A    between atoms: _205  and  _206
REMARK   89  A    between atoms: _209  and  _211
REMARK   90  A    between atoms: _211  and  _212
REMARK   91  A    between atoms: _211  and  _214
REMARK   92  A    between atoms: _214  and  _215
REMARK   93  A    between atoms: _218  and  _220
REMARK   94  A    between atoms: _220  and  _221
REMARK   95  A    between atoms: _220  and  _223
REMARK   96  A    between atoms: _223  and  _224
REMARK   97  A    between atoms: _224  and  _225
REMARK   98  A    between atoms: _225  and  _226
REMARK   99  A    between atoms: _226  and  _227
REMARK  100  A    between atoms: _231  and  _233
REMARK  101  A    between atoms: _233  and  _234
REMARK  102  A    between atoms: _233  and  _236
REMARK  103  A    between atoms: _236  and  _237
REMARK  104  A    between atoms: _237  and  _238
REMARK  105  A    between atoms: _238  and  _239
REMARK  106  A    between atoms: _239  and  _240
REMARK  107  A    between atoms: _244  and  _246
REMARK  108  A    between atoms: _246  and  _247
REMARK  109  A    between atoms: _246  and  _249
REMARK  110  A    between atoms: _249  and  _250
REMARK  111  A    between atoms: _250  and  _251
REMARK  112  A    between atoms: _251  and  _252
REMARK  113  A    between atoms: _261  and  _263
REMARK  114  A    between atoms: _263  and  _264
REMARK  115  A    between atoms: _263  and  _266
REMARK  116  A    between atoms: _266  and  _267
REMARK  117  A    between atoms: _270  and  _272
REMARK  118  A    between atoms: _272  and  _273
REMARK  119  A    between atoms: _276  and  _278
REMARK  120  A    between atoms: _278  and  _279
REMARK  121  A    between atoms: _278  and  _281
REMARK  122  A    between atoms: _281  and  _282
REMARK  123  A    between atoms: _282  and  _283
REMARK  124  A    between atoms: _288  and  _290
REMARK  125  A    between atoms: _290  and  _291
REMARK  126  A    between atoms: _290  and  _293
REMARK  127  A    between atoms: _293  and  _294
REMARK  128  A    between atoms: _294  and  _295
REMARK  129  A    between atoms: _298  and  _300
REMARK  130  A    between atoms: _300  and  _301
REMARK  131  A    between atoms: _303  and  _305
REMARK  132  A    between atoms: _305  and  _306
REMARK  133  A    between atoms: _305  and  _308
REMARK  134  A    between atoms: _310  and  _312
REMARK  135  A    between atoms: _312  and  _313
REMARK  136  A    between atoms: _312  and  _315
REMARK  137  A    between atoms: _315  and  _316
REMARK  138  A    between atoms: _319  and  _321
REMARK  139  A    between atoms: _321  and  _322
REMARK  140  A    between atoms: _321  and  _324
REMARK  141  A    between atoms: _327  and  _329
REMARK  142  A    between atoms: _329  and  _330
REMARK  143  A    between atoms: _333  and  _335
REMARK  144  A    between atoms: _335  and  _336
REMARK  145  A    between atoms: _335  and  _338
REMARK  146  A    between atoms: _338  and  _339
REMARK  147  A    between atoms: _341  and  _343
REMARK  148  A    between atoms: _343  and  _344
REMARK  149  A    between atoms: _343  and  _346
REMARK  150  A    between atoms: _346  and  _347
REMARK  151  A    between atoms: _350  and  _352
REMARK  152  A    between atoms: _352  and  _353
REMARK  153  A    between atoms: _352  and  _355
REMARK  154  A    between atoms: _355  and  _356
REMARK  155  A    between atoms: _361  and  _363
REMARK  156  A    between atoms: _363  and  _364
REMARK  157  A    between atoms: _363  and  _366
REMARK  158  A    between atoms: _366  and  _367
REMARK  159  A    between atoms: _367  and  _368
REMARK  160  A    between atoms: _368  and  _369
REMARK  161  A    between atoms: _378  and  _380
REMARK  162  A    between atoms: _380  and  _381
REMARK  163  A    between atoms: _383  and  _385
REMARK  164  A    between atoms: _385  and  _386
REMARK  165  A    between atoms: _385  and  _388
REMARK  166  A    between atoms: _391  and  _393
REMARK  167  A    between atoms: _393  and  _394
REMARK  168  A    between atoms: _393  and  _396
REMARK  169  A    between atoms: _396  and  _397
REMARK  170  A    between atoms: _400  and  _402
REMARK  171  A    between atoms: _402  and  _403
REMARK  172  A    between atoms: _402  and  _405
REMARK  173  A    between atoms: _405  and  _406
REMARK  174  A    between atoms: _406  and  _407
REMARK  175  A    between atoms: _407  and  _408
REMARK  176  A    between atoms: _408  and  _409
REMARK  177  A    between atoms: _413  and  _415
REMARK  178  A    between atoms: _415  and  _416
REMARK  179  A    between atoms: _415  and  _418
REMARK  180  A    between atoms: _418  and  _419
REMARK  181  A    between atoms: _419  and  _420
REMARK  182  A    between atoms: _420  and  _421
REMARK  183  A    between atoms: _421  and  _422
REMARK  184  A    between atoms: _426  and  _428
REMARK  185  A    between atoms: _428  and  _429
REMARK  186  A    between atoms: _428  and  _431
REMARK  187  A    between atoms: _431  and  _432
REMARK  188  A    between atoms: _437  and  _439
REMARK  189  A    between atoms: _439  and  _440
REMARK  190  A    between atoms: _439  and  _442
REMARK  191  A    between atoms: _442  and  _443
REMARK  192  A    between atoms: _448  and  _450
REMARK  193  A    between atoms: _450  and  _451
REMARK  194  A    between atoms: _454  and  _456
REMARK  195  A    between atoms: _456  and  _457
REMARK  196  A    between atoms: _456  and  _459
REMARK  197  A    between atoms: _459  and  _460
REMARK  198  A    between atoms: _465  and  _467
REMARK  199  A    between atoms: _467  and  _468
REMARK  200  A    between atoms: _471  and  _473
REMARK  201  A    between atoms: _473  and  _474
REMARK  202  A    between atoms: _477  and  _479
REMARK  203  A    between atoms: _479  and  _480
REMARK  204  A    between atoms: _479  and  _482
REMARK  205  A    between atoms: _482  and  _483
REMARK  206  A    between atoms: _488  and  _490
REMARK  207  A    between atoms: _490  and  _491
REMARK  208  A    between atoms: _490  and  _493
REMARK  209  A    between atoms: _493  and  _494
REMARK  210  A    between atoms: _497  and  _499
REMARK  211  A    between atoms: _499  and  _500
REMARK  212  A    between atoms: _502  and  _504
REMARK  213  A    between atoms: _504  and  _505
REMARK  214  A    between atoms: _504  and  _507
REMARK  215  A    between atoms: _507  and  _508
REMARK  216  A    between atoms: _508  and  _509
REMARK  217  A    between atoms: _512  and  _514
REMARK  218  A    between atoms: _514  and  _515
REMARK  219  A    between atoms: _514  and  _517
REMARK  220  A    between atoms: _517  and  _518
REMARK  221  A    between atoms: _521  and  _523
REMARK  222  A    between atoms: _523  and  _524
REMARK  223  A    between atoms: _523  and  _526
REMARK  224  A    between atoms: _526  and  _527
REMARK  225  A    between atoms: _529  and  _531
REMARK  226  A    between atoms: _531  and  _532
REMARK  227  A    between atoms: _531  and  _534
REMARK  228  A    between atoms: _534  and  _535
REMARK  229  A    between atoms: _538  and  _540
REMARK  230  A    between atoms: _540  and  _541
REMARK  231  A    between atoms: _540  and  _543
REMARK  232  A    between atoms: _543  and  _544
REMARK  233  A    between atoms: _544  and  _545
REMARK  234  A    between atoms: _547  and  _549
REMARK  235  A    between atoms: _549  and  _550
REMARK  236  A    between atoms: _553  and  _555
REMARK  237  A    between atoms: _555  and  _556
REMARK  238  A    between atoms: _559  and  _561
REMARK  239  A    between atoms: _561  and  _562
REMARK  240  A    between atoms: _561  and  _564
REMARK  241  A    between atoms: _564  and  _565
REMARK  242  A    between atoms: _568  and  _570
REMARK  243  A    between atoms: _570  and  _571
REMARK  244  A    between atoms: _574  and  _576
REMARK  245  A    between atoms: _576  and  _577
REMARK  246  A    between atoms: _580  and  _582
REMARK  247  A    between atoms: _582  and  _583
REMARK  248  A    between atoms: _585  and  _587
REMARK  249  A    between atoms: _587  and  _588
REMARK  250  A    between atoms: _587  and  _590
REMARK  251  A    between atoms: _590  and  _591
REMARK                            x       y       z     vdW  Elec       q    Type
REMARK                         _______ _______ _______ _____ _____    ______ ____
ROOT
ATOM      1  O   HOH     1      12.085  26.250   7.383  0.00  0.00    +0.000 OA
ENDROOT
TORSDOF 0
REMARK  Name = ../refined-set-2016/3cda/3cda_pocket.pdb
REMARK  251 active torsions:
REMARK  status: ('A' for Active; 'I' for Inactive)
REMARK    1  A    between atoms: _1  and  _3
REMARK    2  A    between atoms: _3  and  _4
REMARK    3  A    between atoms: _3  and  _6
REMARK    4  A    between atoms: _6  and  _7
REMARK    5  A    between atoms: _12  and  _13
REMARK    6  A    between atoms: _15  and  _17
REMARK    7  A    between atoms: _17  and  _18
REMARK    8  A    between atoms: _17  and  _20
REMARK    9  A    between atoms: _20  and  _21
REMARK   10  A    between atoms: _21  and  _22
REMARK   11  A    between atoms: _25  and  _27
REMARK   12  A    between atoms: _27  and  _28
REMARK   13  A    between atoms: _27  and  _30
REMARK   14  A    between atoms: _30  and  _31
REMARK   15  A    between atoms: _34  and  _36
REMARK   16  A    between atoms: _36  and  _37
REMARK   17  A    between atoms: _36  and  _39
REMARK   18  A    between atoms: _39  and  _40
REMARK   19  A    between atoms: _40  and  _41
REMARK   20  A    between atoms: _41  and  _42
REMARK   21  A    between atoms: _51  and  _53
REMARK   22  A    between atoms: _53  and  _54
REMARK   23  A    between atoms: _57  and  _58
REMARK   24  A    between atoms: _63  and  _65
REMARK   25  A    between atoms: _65  and  _66
REMARK   26  A    between atoms: _65  and  _68
REMARK   27  A    between atoms: _68  and  _69
REMARK   28  A    between atoms: _69  and  _70
REMARK   29  A    between atoms: _72  and  _74
REMARK   30  A    between atoms: _74  and  _75
REMARK   31  A    between atoms: _74  and  _77
REMARK   32  A    between atoms: _77  and  _78
REMARK   33  A    between atoms: _78  and  _79
REMARK   34  A    between atoms: _81  and  _83
REMARK   35  A    between atoms: _83  and  _84
REMARK   36  A    between atoms: _83  and  _86
REMARK   37  A    between atoms: _86  and  _87
REMARK   38  A    between atoms: _92  and  _94
REMARK   39  A    between atoms: _94  and  _95
REMARK   40  A    between atoms: _94  and  _97
REMARK   41  A    between atoms: _97  and  _98
REMARK   42  A    between atoms: _101  and  _103
REMARK   43  A    between atoms: _103  and  _104
REMARK   44  A    between atoms: _103  and  _106
REMARK   45  A    between atoms: _106  and  _107
REMARK   46  A    between atoms: _109  and  _111
REMARK   47  A    between atoms: _111  and  _112
REMARK   48  A    between atoms: _111  and  _114
REMARK   49  A    between atoms: _114  and  _115
REMARK   50  A    between atoms: _115  and  _116
REMARK   51  A    between atoms: _116  and  _117
REMARK   52  A    between atoms: _117  and  _118
REMARK   53  A    between atoms: _122  and  _124
REMARK   54  A    between atoms: _124  and  _125
REMARK   55  A    between atoms: _124  and  _127
REMARK   56  A    between atoms: _127  and  _128
REMARK   57  A    between atoms: _131  and  _133
REMARK   58  A    between atoms: _133  and  _134
REMARK   59  A    between atoms: _133  and  _136
REMARK   60  A    between atoms: _136  and  _137
REMARK   61  A    between atoms: _137  and  _138
REMARK   62  A    between atoms: _141  and  _143
REMARK   63  A    between atoms: _143  and  _144
REMARK   64  A    between atoms: _147  and  _149
REMARK   65  A    between atoms: _149  and  _150
REMARK   66  A    between atoms: _149  and  _152
REMARK   67  A    between atoms: _155  and  _157
REMARK   68  A    between atoms: _157  and  _158
REMARK   69  A    between atoms: _157  and  _160
REMARK   70  A    between atoms: _160  and  _161
REMARK   71  A    between atoms: _163  and  _165
REMARK   72  A    between atoms: _165  and  _166
REMARK   73  A    between atoms: _168  and  _170
REMARK   74  A    between atoms: _170  and  _171
REMARK   75  A    between atoms: _170  and  _173
REMARK   76  A    between atoms: _173  and  _174
REMARK   77  A    between atoms: _179  and  _181
REMARK   78  A    between atoms: _181  and  _182
REMARK   79  A    between atoms: _181  and  _184
REMARK   80  A    between atoms: _184  and  _185
REMARK   81  A    between atoms: _190  and  _191
REMARK   82  A    between atoms: _193  and  _195
REMARK   83  A    between atoms: _195  and  _196
REMARK   84  A    between atoms: _195  and  _198
REMARK   85  A    between atoms: _200  and  _202
REMARK   86  A    between atoms: _202  and  _203
REMARK   87  A    between atoms: _202  and  _205
REMARK   88  A    between atoms: _205  and  _206
REMARK   89  A    between atoms: _209  and  _211
REMARK   90  A    between atoms: _211  and  _212
REMARK   91  A    between atoms: _211  and  _214
REMARK   92  A    between atoms: _214  and  _215
REMARK   93  A    between atoms: _218  and  _220
REMARK   94  A    between atoms: _220  and  _221
REMARK   95  A    between atoms: _220  and  _223
REMARK   96  A    between atoms: _223  and  _224
REMARK   97  A    between atoms: _224  and  _225
REMARK   98  A    between atoms: _225  and  _226
REMARK   99  A    between atoms: _226  and  _227
REMARK  100  A    between atoms: _231  and  _233
REMARK  101  A    between atoms: _233  and  _234
REMARK  102  A    between atoms: _233  and  _236
REMARK  103  A    between atoms: _236  and  _237
REMARK  104  A    between atoms: _237  and  _238
REMARK  105  A    between atoms: _238  and  _239
REMARK  106  A    between atoms: _239  and  _240
REMARK  107  A    between atoms: _244  and  _246
REMARK  108  A    between atoms: _246  and  _247
REMARK  109  A    between atoms: _246  and  _249
REMARK  110  A    between atoms: _249  and  _250
REMARK  111  A    between atoms: _250  and  _251
REMARK  112  A    between atoms: _251  and  _252
REMARK  113  A    between atoms: _261  and  _263
REMARK  114  A    between atoms: _263  and  _264
REMARK  115  A    between atoms: _263  and  _266
REMARK  116  A    between atoms: _266  and  _267
REMARK  117  A    between atoms: _270  and  _272
REMARK  118  A    between atoms: _272  and  _273
REMARK  119  A    between atoms: _276  and  _278
REMARK  120  A    between atoms: _278  and  _279
REMARK  121  A    between atoms: _278  and  _281
REMARK  122  A    between atoms: _281  and  _282
REMARK  123  A    between atoms: _282  and  _283
REMARK  124  A    between atoms: _288  and  _290
REMARK  125  A    between atoms: _290  and  _291
REMARK  126  A    between atoms: _290  and  _293
REMARK  127  A    between atoms: _293  and  _294
REMARK  128  A    between atoms: _294  and  _295
REMARK  129  A    between atoms: _298  and  _300
REMARK  130  A    between atoms: _300  and  _301
REMARK  131  A    between atoms: _303  and  _305
REMARK  132  A    between atoms: _305  and  _306
REMARK  133  A    between atoms: _305  and  _308
REMARK  134  A    between atoms: _310  and  _312
REMARK  135  A    between atoms: _312  and  _313
REMARK  136  A    between atoms: _312  and  _315
REMARK  137  A    between atoms: _315  and  _316
REMARK  138  A    between atoms: _319  and  _321
REMARK  139  A    between atoms: _321  and  _322
REMARK  140  A    between atoms: _321  and  _324
REMARK  141  A    between atoms: _327  and  _329
REMARK  142  A    between atoms: _329  and  _330
REMARK  143  A    between atoms: _333  and  _335
REMARK  144  A    between atoms: _335  and  _336
REMARK  145  A    between atoms: _335  and  _338
REMARK  146  A    between atoms: _338  and  _339
REMARK  147  A    between atoms: _341  and  _343
REMARK  148  A    between atoms: _343  and  _344
REMARK  149  A    between atoms: _343  and  _346
REMARK  150  A    between atoms: _346  and  _347
REMARK  151  A    between atoms: _350  and  _352
REMARK  152  A    between atoms: _352  and  _353
REMARK  153  A    between atoms: _352  and  _355
REMARK  154  A    between atoms: _355  and  _356
REMARK  155  A    between atoms: _361  and  _363
REMARK  156  A    between atoms: _363  and  _364
REMARK  157  A    between atoms: _363  and  _366
REMARK  158  A    between atoms: _366  and  _367
REMARK  159  A    between atoms: _367  and  _368
REMARK  160  A    between atoms: _368  and  _369
REMARK  161  A    between atoms: _378  and  _380
REMARK  162  A    between atoms: _380  and  _381
REMARK  163  A    between atoms: _383  and  _385
REMARK  164  A    between atoms: _385  and  _386
REMARK  165  A    between atoms: _385  and  _388
REMARK  166  A    between atoms: _391  and  _393
REMARK  167  A    between atoms: _393  and  _394
REMARK  168  A    between atoms: _393  and  _396
REMARK  169  A    between atoms: _396  and  _397
REMARK  170  A    between atoms: _400  and  _402
REMARK  171  A    between atoms: _402  and  _403
REMARK  172  A    between atoms: _402  and  _405
REMARK  173  A    between atoms: _405  and  _406
REMARK  174  A    between atoms: _406  and  _407
REMARK  175  A    between atoms: _407  and  _408
REMARK  176  A    between atoms: _408  and  _409
REMARK  177  A    between atoms: _413  and  _415
REMARK  178  A    between atoms: _415  and  _416
REMARK  179  A    between atoms: _415  and  _418
REMARK  180  A    between atoms: _418  and  _419
REMARK  181  A    between atoms: _419  and  _420
REMARK  182  A    between atoms: _420  and  _421
REMARK  183  A    between atoms: _421  and  _422
REMARK  184  A    between atoms: _426  and  _428
REMARK  185  A    between atoms: _428  and  _429
REMARK  186  A    between atoms: _428  and  _431
REMARK  187  A    between atoms: _431  and  _432
REMARK  188  A    between atoms: _437  and  _439
REMARK  189  A    between atoms: _439  and  _440
REMARK  190  A    between atoms: _439  and  _442
REMARK  191  A    between atoms: _442  and  _443
REMARK  192  A    between atoms: _448  and  _450
REMARK  193  A    between atoms: _450  and  _451
REMARK  194  A    between atoms: _454  and  _456
REMARK  195  A    between atoms: _456  and  _457
REMARK  196  A    between atoms: _456  and  _459
REMARK  197  A    between atoms: _459  and  _460
REMARK  198  A    between atoms: _465  and  _467
REMARK  199  A    between atoms: _467  and  _468
REMARK  200  A    between atoms: _471  and  _473
REMARK  201  A    between atoms: _473  and  _474
REMARK  202  A    between atoms: _477  and  _479
REMARK  203  A    between atoms: _479  and  _480
REMARK  204  A    between atoms: _479  and  _482
REMARK  205  A    between atoms: _482  and  _483
REMARK  206  A    between atoms: _488  and  _490
REMARK  207  A    between atoms: _490  and  _491
REMARK  208  A    between atoms: _490  and  _493
REMARK  209  A    between atoms: _493  and  _494
REMARK  210  A    between atoms: _497  and  _499
REMARK  211  A    between atoms: _499  and  _500
REMARK  212  A    between atoms: _502  and  _504
REMARK  213  A    between atoms: _504  and  _505
REMARK  214  A    between atoms: _504  and  _507
REMARK  215  A    between atoms: _507  and  _508
REMARK  216  A    between atoms: _508  and  _509
REMARK  217  A    between atoms: _512  and  _514
REMARK  218  A    between atoms: _514  and  _515
REMARK  219  A    between atoms: _514  and  _517
REMARK  220  A    between atoms: _517  and  _518
REMARK  221  A    between atoms: _521  and  _523
REMARK  222  A    between atoms: _523  and  _524
REMARK  223  A    between atoms: _523  and  _526
REMARK  224  A    between atoms: _526  and  _527
REMARK  225  A    between atoms: _529  and  _531
REMARK  226  A    between atoms: _531  and  _532
REMARK  227  A    between atoms: _531  and  _534
REMARK  228  A    between atoms: _534  and  _535
REMARK  229  A    between atoms: _538  and  _540
REMARK  230  A    between atoms: _540  and  _541
REMARK  231  A    between atoms: _540  and  _543
REMARK  232  A    between atoms: _543  and  _544
REMARK  233  A    between atoms: _544  and  _545
REMARK  234  A    between atoms: _547  and  _549
REMARK  235  A    between atoms: _549  and  _550
REMARK  236  A    between atoms: _553  and  _555
REMARK  237  A    between atoms: _555  and  _556
REMARK  238  A    between atoms: _559  and  _561
REMARK  239  A    between atoms: _561  and  _562
REMARK  240  A    between atoms: _561  and  _564
REMARK  241  A    between atoms: _564  and  _565
REMARK  242  A    between atoms: _568  and  _570
REMARK  243  A    between atoms: _570  and  _571
REMARK  244  A    between atoms: _574  and  _576
REMARK  245  A    between atoms: _576  and  _577
REMARK  246  A    between atoms: _580  and  _582
REMARK  247  A    between atoms: _582  and  _583
REMARK  248  A    between atoms: _585  and  _587
REMARK  249  A    between atoms: _587  and  _588
REMARK  250  A    between atoms: _587  and  _590
REMARK  251  A    between atoms: _590  and  _591
REMARK                            x       y       z     vdW  Elec       q    Type
REMARK                         _______ _______ _______ _____ _____    ______ ____
ROOT
ATOM      1  O   HOH     1      25.453  26.482  20.553  0.00  0.00    +0.000 OA
ENDROOT
TORSDOF 0
REMARK  Name = ../refined-set-2016/3cda/3cda_pocket.pdb
REMARK  251 active torsions:
REMARK  status: ('A' for Active; 'I' for Inactive)
REMARK    1  A    between atoms: _1  and  _3
REMARK    2  A    between atoms: _3  and  _4
REMARK    3  A    between atoms: _3  and  _6
REMARK    4  A    between atoms: _6  and  _7
REMARK    5  A    between atoms: _12  and  _13
REMARK    6  A    between atoms: _15  and  _17
REMARK    7  A    between atoms: _17  and  _18
REMARK    8  A    between atoms: _17  and  _20
REMARK    9  A    between atoms: _20  and  _21
REMARK   10  A    between atoms: _21  and  _22
REMARK   11  A    between atoms: _25  and  _27
REMARK   12  A    between atoms: _27  and  _28
REMARK   13  A    between atoms: _27  and  _30
REMARK   14  A    between atoms: _30  and  _31
REMARK   15  A    between atoms: _34  and  _36
REMARK   16  A    between atoms: _36  and  _37
REMARK   17  A    between atoms: _36  and  _39
REMARK   18  A    between atoms: _39  and  _40
REMARK   19  A    between atoms: _40  and  _41
REMARK   20  A    between atoms: _41  and  _42
REMARK   21  A    between atoms: _51  and  _53
REMARK   22  A    between atoms: _53  and  _54
REMARK   23  A    between atoms: _57  and  _58
REMARK   24  A    between atoms: _63  and  _65
REMARK   25  A    between atoms: _65  and  _66
REMARK   26  A    between atoms: _65  and  _68
REMARK   27  A    between atoms: _68  and  _69
REMARK   28  A    between atoms: _69  and  _70
REMARK   29  A    between atoms: _72  and  _74
REMARK   30  A    between atoms: _74  and  _75
REMARK   31  A    between atoms: _74  and  _77
REMARK   32  A    between atoms: _77  and  _78
REMARK   33  A    between atoms: _78  and  _79
REMARK   34  A    between atoms: _81  and  _83
REMARK   35  A    between atoms: _83  and  _84
REMARK   36  A    between atoms: _83  and  _86
REMARK   37  A    between atoms: _86  and  _87
REMARK   38  A    between atoms: _92  and  _94
REMARK   39  A    between atoms: _94  and  _95
REMARK   40  A    between atoms: _94  and  _97
REMARK   41  A    between atoms: _97  and  _98
REMARK   42  A    between atoms: _101  and  _103
REMARK   43  A    between atoms: _103  and  _104
REMARK   44  A    between atoms: _103  and  _106
REMARK   45  A    between atoms: _106  and  _107
REMARK   46  A    between atoms: _109  and  _111
REMARK   47  A    between atoms: _111  and  _112
REMARK   48  A    between atoms: _111  and  _114
REMARK   49  A    between atoms: _114  and  _115
REMARK   50  A    between atoms: _115  and  _116
REMARK   51  A    between atoms: _116  and  _117
REMARK   52  A    between atoms: _117  and  _118
REMARK   53  A    between atoms: _122  and  _124
REMARK   54  A    between atoms: _124  and  _125
REMARK   55  A    between atoms: _124  and  _127
REMARK   56  A    between atoms: _127  and  _128
REMARK   57  A    between atoms: _131  and  _133
REMARK   58  A    between atoms: _133  and  _134
REMARK   59  A    between atoms: _133  and  _136
REMARK   60  A    between atoms: _136  and  _137
REMARK   61  A    between atoms: _137  and  _138
REMARK   62  A    between atoms: _141  and  _143
REMARK   63  A    between atoms: _143  and  _144
REMARK   64  A    between atoms: _147  and  _149
REMARK   65  A    between atoms: _149  and  _150
REMARK   66  A    between atoms: _149  and  _152
REMARK   67  A    between atoms: _155  and  _157
REMARK   68  A    between atoms: _157  and  _158
REMARK   69  A    between atoms: _157  and  _160
REMARK   70  A    between atoms: _160  and  _161
REMARK   71  A    between atoms: _163  and  _165
REMARK   72  A    between atoms: _165  and  _166
REMARK   73  A    between atoms: _168  and  _170
REMARK   74  A    between atoms: _170  and  _171
REMARK   75  A    between atoms: _170  and  _173
REMARK   76  A    between atoms: _173  and  _174
REMARK   77  A    between atoms: _179  and  _181
REMARK   78  A    between atoms: _181  and  _182
REMARK   79  A    between atoms: _181  and  _184
REMARK   80  A    between atoms: _184  and  _185
REMARK   81  A    between atoms: _190  and  _191
REMARK   82  A    between atoms: _193  and  _195
REMARK   83  A    between atoms: _195  and  _196
REMARK   84  A    between atoms: _195  and  _198
REMARK   85  A    between atoms: _200  and  _202
REMARK   86  A    between atoms: _202  and  _203
REMARK   87  A    between atoms: _202  and  _205
REMARK   88  A    between atoms: _205  and  _206
REMARK   89  A    between atoms: _209  and  _211
REMARK   90  A    between atoms: _211  and  _212
REMARK   91  A    between atoms: _211  and  _214
REMARK   92  A    between atoms: _214  and  _215
REMARK   93  A    between atoms: _218  and  _220
REMARK   94  A    between atoms: _220  and  _221
REMARK   95  A    between atoms: _220  and  _223
REMARK   96  A    between atoms: _223  and  _224
REMARK   97  A    between atoms: _224  and  _225
REMARK   98  A    between atoms: _225  and  _226
REMARK   99  A    between atoms: _226  and  _227
REMARK  100  A    between atoms: _231  and  _233
REMARK  101  A    between atoms: _233  and  _234
REMARK  102  A    between atoms: _233  and  _236
REMARK  103  A    between atoms: _236  and  _237
REMARK  104  A    between atoms: _237  and  _238
REMARK  105  A    between atoms: _238  and  _239
REMARK  106  A    between atoms: _239  and  _240
REMARK  107  A    between atoms: _244  and  _246
REMARK  108  A    between atoms: _246  and  _247
REMARK  109  A    between atoms: _246  and  _249
REMARK  110  A    between atoms: _249  and  _250
REMARK  111  A    between atoms: _250  and  _251
REMARK  112  A    between atoms: _251  and  _252
REMARK  113  A    between atoms: _261  and  _263
REMARK  114  A    between atoms: _263  and  _264
REMARK  115  A    between atoms: _263  and  _266
REMARK  116  A    between atoms: _266  and  _267
REMARK  117  A    between atoms: _270  and  _272
REMARK  118  A    between atoms: _272  and  _273
REMARK  119  A    between atoms: _276  and  _278
REMARK  120  A    between atoms: _278  and  _279
REMARK  121  A    between atoms: _278  and  _281
REMARK  122  A    between atoms: _281  and  _282
REMARK  123  A    between atoms: _282  and  _283
REMARK  124  A    between atoms: _288  and  _290
REMARK  125  A    between atoms: _290  and  _291
REMARK  126  A    between atoms: _290  and  _293
REMARK  127  A    between atoms: _293  and  _294
REMARK  128  A    between atoms: _294  and  _295
REMARK  129  A    between atoms: _298  and  _300
REMARK  130  A    between atoms: _300  and  _301
REMARK  131  A    between atoms: _303  and  _305
REMARK  132  A    between atoms: _305  and  _306
REMARK  133  A    between atoms: _305  and  _308
REMARK  134  A    between atoms: _310  and  _312
REMARK  135  A    between atoms: _312  and  _313
REMARK  136  A    between atoms: _312  and  _315
REMARK  137  A    between atoms: _315  and  _316
REMARK  138  A    between atoms: _319  and  _321
REMARK  139  A    between atoms: _321  and  _322
REMARK  140  A    between atoms: _321  and  _324
REMARK  141  A    between atoms: _327  and  _329
REMARK  142  A    between atoms: _329  and  _330
REMARK  143  A    between atoms: _333  and  _335
REMARK  144  A    between atoms: _335  and  _336
REMARK  145  A    between atoms: _335  and  _338
REMARK  146  A    between atoms: _338  and  _339
REMARK  147  A    between atoms: _341  and  _343
REMARK  148  A    between atoms: _343  and  _344
REMARK  149  A    between atoms: _343  and  _346
REMARK  150  A    between atoms: _346  and  _347
REMARK  151  A    between atoms: _350  and  _352
REMARK  152  A    between atoms: _352  and  _353
REMARK  153  A    between atoms: _352  and  _355
REMARK  154  A    between atoms: _355  and  _356
REMARK  155  A    between atoms: _361  and  _363
REMARK  156  A    between atoms: _363  and  _364
REMARK  157  A    between atoms: _363  and  _366
REMARK  158  A    between atoms: _366  and  _367
REMARK  159  A    between atoms: _367  and  _368
REMARK  160  A    between atoms: _368  and  _369
REMARK  161  A    between atoms: _378  and  _380
REMARK  162  A    between atoms: _380  and  _381
REMARK  163  A    between atoms: _383  and  _385
REMARK  164  A    between atoms: _385  and  _386
REMARK  165  A    between atoms: _385  and  _388
REMARK  166  A    between atoms: _391  and  _393
REMARK  167  A    between atoms: _393  and  _394
REMARK  168  A    between atoms: _393  and  _396
REMARK  169  A    between atoms: _396  and  _397
REMARK  170  A    between atoms: _400  and  _402
REMARK  171  A    between atoms: _402  and  _403
REMARK  172  A    between atoms: _402  and  _405
REMARK  173  A    between atoms: _405  and  _406
REMARK  174  A    between atoms: _406  and  _407
REMARK  175  A    between atoms: _407  and  _408
REMARK  176  A    between atoms: _408  and  _409
REMARK  177  A    between atoms: _413  and  _415
REMARK  178  A    between atoms: _415  and  _416
REMARK  179  A    between atoms: _415  and  _418
REMARK  180  A    between atoms: _418  and  _419
REMARK  181  A    between atoms: _419  and  _420
REMARK  182  A    between atoms: _420  and  _421
REMARK  183  A    between atoms: _421  and  _422
REMARK  184  A    between atoms: _426  and  _428
REMARK  185  A    between atoms: _428  and  _429
REMARK  186  A    between atoms: _428  and  _431
REMARK  187  A    between atoms: _431  and  _432
REMARK  188  A    between atoms: _437  and  _439
REMARK  189  A    between atoms: _439  and  _440
REMARK  190  A    between atoms: _439  and  _442
REMARK  191  A    between atoms: _442  and  _443
REMARK  192  A    between atoms: _448  and  _450
REMARK  193  A    between atoms: _450  and  _451
REMARK  194  A    between atoms: _454  and  _456
REMARK  195  A    between atoms: _456  and  _457
REMARK  196  A    between atoms: _456  and  _459
REMARK  197  A    between atoms: _459  and  _460
REMARK  198  A    between atoms: _465  and  _467
REMARK  199  A    between atoms: _467  and  _468
REMARK  200  A    between atoms: _471  and  _473
REMARK  201  A    between atoms: _473  and  _474
REMARK  202  A    between atoms: _477  and  _479
REMARK  203  A    between atoms: _479  and  _480
REMARK  204  A    between atoms: _479  and  _482
REMARK  205  A    between atoms: _482  and  _483
REMARK  206  A    between atoms: _488  and  _490
REMARK  207  A    between atoms: _490  and  _491
REMARK  208  A    between atoms: _490  and  _493
REMARK  209  A    between atoms: _493  and  _494
REMARK  210  A    between atoms: _497  and  _499
REMARK  211  A    between atoms: _499  and  _500
REMARK  212  A    between atoms: _502  and  _504
REMARK  213  A    between atoms: _504  and  _505
REMARK  214  A    between atoms: _504  and  _507
REMARK  215  A    between atoms: _507  and  _508
REMARK  216  A    between atoms: _508  and  _509
REMARK  217  A    between atoms: _512  and  _514
REMARK  218  A    between atoms: _514  and  _515
REMARK  219  A    between atoms: _514  and  _517
REMARK  220  A    between atoms: _517  and  _518
REMARK  221  A    between atoms: _521  and  _523
REMARK  222  A    between atoms: _523  and  _524
REMARK  223  A    between atoms: _523  and  _526
REMARK  224  A    between atoms: _526  and  _527
REMARK  225  A    between atoms: _529  and  _531
REMARK  226  A    between atoms: _531  and  _532
REMARK  227  A    between atoms: _531  and  _534
REMARK  228  A    between atoms: _534  and  _535
REMARK  229  A    between atoms: _538  and  _540
REMARK  230  A    between atoms: _540  and  _541
REMARK  231  A    between atoms: _540  and  _543
REMARK  232  A    between atoms: _543  and  _544
REMARK  233  A    between atoms: _544  and  _545
REMARK  234  A    between atoms: _547  and  _549
REMARK  235  A    between atoms: _549  and  _550
REMARK  236  A    between atoms: _553  and  _555
REMARK  237  A    between atoms: _555  and  _556
REMARK  238  A    between atoms: _559  and  _561
REMARK  239  A    between atoms: _561  and  _562
REMARK  240  A    between atoms: _561  and  _564
REMARK  241  A    between atoms: _564  and  _565
REMARK  242  A    between atoms: _568  and  _570
REMARK  243  A    between atoms: _570  and  _571
REMARK  244  A    between atoms: _574  and  _576
REMARK  245  A    between atoms: _576  and  _577
REMARK  246  A    between atoms: _580  and  _582
REMARK  247  A    between atoms: _582  and  _583
REMARK  248  A    between atoms: _585  and  _587
REMARK  249  A    between atoms: _587  and  _588
REMARK  250  A    between atoms: _587  and  _590
REMARK  251  A    between atoms: _590  and  _591
REMARK                            x       y       z     vdW  Elec       q    Type
REMARK                         _______ _______ _______ _____ _____    ______ ____
ROOT
ATOM      1  O   HOH     1      23.395  21.350   9.710  0.00  0.00    +0.000 OA
ENDROOT
TORSDOF 0
REMARK  Name = ../refined-set-2016/3cda/3cda_pocket.pdb
REMARK  251 active torsions:
REMARK  status: ('A' for Active; 'I' for Inactive)
REMARK    1  A    between atoms: _1  and  _3
REMARK    2  A    between atoms: _3  and  _4
REMARK    3  A    between atoms: _3  and  _6
REMARK    4  A    between atoms: _6  and  _7
REMARK    5  A    between atoms: _12  and  _13
REMARK    6  A    between atoms: _15  and  _17
REMARK    7  A    between atoms: _17  and  _18
REMARK    8  A    between atoms: _17  and  _20
REMARK    9  A    between atoms: _20  and  _21
REMARK   10  A    between atoms: _21  and  _22
REMARK   11  A    between atoms: _25  and  _27
REMARK   12  A    between atoms: _27  and  _28
REMARK   13  A    between atoms: _27  and  _30
REMARK   14  A    between atoms: _30  and  _31
REMARK   15  A    between atoms: _34  and  _36
REMARK   16  A    between atoms: _36  and  _37
REMARK   17  A    between atoms: _36  and  _39
REMARK   18  A    between atoms: _39  and  _40
REMARK   19  A    between atoms: _40  and  _41
REMARK   20  A    between atoms: _41  and  _42
REMARK   21  A    between atoms: _51  and  _53
REMARK   22  A    between atoms: _53  and  _54
REMARK   23  A    between atoms: _57  and  _58
REMARK   24  A    between atoms: _63  and  _65
REMARK   25  A    between atoms: _65  and  _66
REMARK   26  A    between atoms: _65  and  _68
REMARK   27  A    between atoms: _68  and  _69
REMARK   28  A    between atoms: _69  and  _70
REMARK   29  A    between atoms: _72  and  _74
REMARK   30  A    between atoms: _74  and  _75
REMARK   31  A    between atoms: _74  and  _77
REMARK   32  A    between atoms: _77  and  _78
REMARK   33  A    between atoms: _78  and  _79
REMARK   34  A    between atoms: _81  and  _83
REMARK   35  A    between atoms: _83  and  _84
REMARK   36  A    between atoms: _83  and  _86
REMARK   37  A    between atoms: _86  and  _87
REMARK   38  A    between atoms: _92  and  _94
REMARK   39  A    between atoms: _94  and  _95
REMARK   40  A    between atoms: _94  and  _97
REMARK   41  A    between atoms: _97  and  _98
REMARK   42  A    between atoms: _101  and  _103
REMARK   43  A    between atoms: _103  and  _104
REMARK   44  A    between atoms: _103  and  _106
REMARK   45  A    between atoms: _106  and  _107
REMARK   46  A    between atoms: _109  and  _111
REMARK   47  A    between atoms: _111  and  _112
REMARK   48  A    between atoms: _111  and  _114
REMARK   49  A    between atoms: _114  and  _115
REMARK   50  A    between atoms: _115  and  _116
REMARK   51  A    between atoms: _116  and  _117
REMARK   52  A    between atoms: _117  and  _118
REMARK   53  A    between atoms: _122  and  _124
REMARK   54  A    between atoms: _124  and  _125
REMARK   55  A    between atoms: _124  and  _127
REMARK   56  A    between atoms: _127  and  _128
REMARK   57  A    between atoms: _131  and  _133
REMARK   58  A    between atoms: _133  and  _134
REMARK   59  A    between atoms: _133  and  _136
REMARK   60  A    between atoms: _136  and  _137
REMARK   61  A    between atoms: _137  and  _138
REMARK   62  A    between atoms: _141  and  _143
REMARK   63  A    between atoms: _143  and  _144
REMARK   64  A    between atoms: _147  and  _149
REMARK   65  A    between atoms: _149  and  _150
REMARK   66  A    between atoms: _149  and  _152
REMARK   67  A    between atoms: _155  and  _157
REMARK   68  A    between atoms: _157  and  _158
REMARK   69  A    between atoms: _157  and  _160
REMARK   70  A    between atoms: _160  and  _161
REMARK   71  A    between atoms: _163  and  _165
REMARK   72  A    between atoms: _165  and  _166
REMARK   73  A    between atoms: _168  and  _170
REMARK   74  A    between atoms: _170  and  _171
REMARK   75  A    between atoms: _170  and  _173
REMARK   76  A    between atoms: _173  and  _174
REMARK   77  A    between atoms: _179  and  _181
REMARK   78  A    between atoms: _181  and  _182
REMARK   79  A    between atoms: _181  and  _184
REMARK   80  A    between atoms: _184  and  _185
REMARK   81  A    between atoms: _190  and  _191
REMARK   82  A    between atoms: _193  and  _195
REMARK   83  A    between atoms: _195  and  _196
REMARK   84  A    between atoms: _195  and  _198
REMARK   85  A    between atoms: _200  and  _202
REMARK   86  A    between atoms: _202  and  _203
REMARK   87  A    between atoms: _202  and  _205
REMARK   88  A    between atoms: _205  and  _206
REMARK   89  A    between atoms: _209  and  _211
REMARK   90  A    between atoms: _211  and  _212
REMARK   91  A    between atoms: _211  and  _214
REMARK   92  A    between atoms: _214  and  _215
REMARK   93  A    between atoms: _218  and  _220
REMARK   94  A    between atoms: _220  and  _221
REMARK   95  A    between atoms: _220  and  _223
REMARK   96  A    between atoms: _223  and  _224
REMARK   97  A    between atoms: _224  and  _225
REMARK   98  A    between atoms: _225  and  _226
REMARK   99  A    between atoms: _226  and  _227
REMARK  100  A    between atoms: _231  and  _233
REMARK  101  A    between atoms: _233  and  _234
REMARK  102  A    between atoms: _233  and  _236
REMARK  103  A    between atoms: _236  and  _237
REMARK  104  A    between atoms: _237  and  _238
REMARK  105  A    between atoms: _238  and  _239
REMARK  106  A    between atoms: _239  and  _240
REMARK  107  A    between atoms: _244  and  _246
REMARK  108  A    between atoms: _246  and  _247
REMARK  109  A    between atoms: _246  and  _249
REMARK  110  A    between atoms: _249  and  _250
REMARK  111  A    between atoms: _250  and  _251
REMARK  112  A    between atoms: _251  and  _252
REMARK  113  A    between atoms: _261  and  _263
REMARK  114  A    between atoms: _263  and  _264
REMARK  115  A    between atoms: _263  and  _266
REMARK  116  A    between atoms: _266  and  _267
REMARK  117  A    between atoms: _270  and  _272
REMARK  118  A    between atoms: _272  and  _273
REMARK  119  A    between atoms: _276  and  _278
REMARK  120  A    between atoms: _278  and  _279
REMARK  121  A    between atoms: _278  and  _281
REMARK  122  A    between atoms: _281  and  _282
REMARK  123  A    between atoms: _282  and  _283
REMARK  124  A    between atoms: _288  and  _290
REMARK  125  A    between atoms: _290  and  _291
REMARK  126  A    between atoms: _290  and  _293
REMARK  127  A    between atoms: _293  and  _294
REMARK  128  A    between atoms: _294  and  _295
REMARK  129  A    between atoms: _298  and  _300
REMARK  130  A    between atoms: _300  and  _301
REMARK  131  A    between atoms: _303  and  _305
REMARK  132  A    between atoms: _305  and  _306
REMARK  133  A    between atoms: _305  and  _308
REMARK  134  A    between atoms: _310  and  _312
REMARK  135  A    between atoms: _312  and  _313
REMARK  136  A    between atoms: _312  and  _315
REMARK  137  A    between atoms: _315  and  _316
REMARK  138  A    between atoms: _319  and  _321
REMARK  139  A    between atoms: _321  and  _322
REMARK  140  A    between atoms: _321  and  _324
REMARK  141  A    between atoms: _327  and  _329
REMARK  142  A    between atoms: _329  and  _330
REMARK  143  A    between atoms: _333  and  _335
REMARK  144  A    between atoms: _335  and  _336
REMARK  145  A    between atoms: _335  and  _338
REMARK  146  A    between atoms: _338  and  _339
REMARK  147  A    between atoms: _341  and  _343
REMARK  148  A    between atoms: _343  and  _344
REMARK  149  A    between atoms: _343  and  _346
REMARK  150  A    between atoms: _346  and  _347
REMARK  151  A    between atoms: _350  and  _352
REMARK  152  A    between atoms: _352  and  _353
REMARK  153  A    between atoms: _352  and  _355
REMARK  154  A    between atoms: _355  and  _356
REMARK  155  A    between atoms: _361  and  _363
REMARK  156  A    between atoms: _363  and  _364
REMARK  157  A    between atoms: _363  and  _366
REMARK  158  A    between atoms: _366  and  _367
REMARK  159  A    between atoms: _367  and  _368
REMARK  160  A    between atoms: _368  and  _369
REMARK  161  A    between atoms: _378  and  _380
REMARK  162  A    between atoms: _380  and  _381
REMARK  163  A    between atoms: _383  and  _385
REMARK  164  A    between atoms: _385  and  _386
REMARK  165  A    between atoms: _385  and  _388
REMARK  166  A    between atoms: _391  and  _393
REMARK  167  A    between atoms: _393  and  _394
REMARK  168  A    between atoms: _393  and  _396
REMARK  169  A    between atoms: _396  and  _397
REMARK  170  A    between atoms: _400  and  _402
REMARK  171  A    between atoms: _402  and  _403
REMARK  172  A    between atoms: _402  and  _405
REMARK  173  A    between atoms: _405  and  _406
REMARK  174  A    between atoms: _406  and  _407
REMARK  175  A    between atoms: _407  and  _408
REMARK  176  A    between atoms: _408  and  _409
REMARK  177  A    between atoms: _413  and  _415
REMARK  178  A    between atoms: _415  and  _416
REMARK  179  A    between atoms: _415  and  _418
REMARK  180  A    between atoms: _418  and  _419
REMARK  181  A    between atoms: _419  and  _420
REMARK  182  A    between atoms: _420  and  _421
REMARK  183  A    between atoms: _421  and  _422
REMARK  184  A    between atoms: _426  and  _428
REMARK  185  A    between atoms: _428  and  _429
REMARK  186  A    between atoms: _428  and  _431
REMARK  187  A    between atoms: _431  and  _432
REMARK  188  A    between atoms: _437  and  _439
REMARK  189  A    between atoms: _439  and  _440
REMARK  190  A    between atoms: _439  and  _442
REMARK  191  A    between atoms: _442  and  _443
REMARK  192  A    between atoms: _448  and  _450
REMARK  193  A    between atoms: _450  and  _451
REMARK  194  A    between atoms: _454  and  _456
REMARK  195  A    between atoms: _456  and  _457
REMARK  196  A    between atoms: _456  and  _459
REMARK  197  A    between atoms: _459  and  _460
REMARK  198  A    between atoms: _465  and  _467
REMARK  199  A    between atoms: _467  and  _468
REMARK  200  A    between atoms: _471  and  _473
REMARK  201  A    between atoms: _473  and  _474
REMARK  202  A    between atoms: _477  and  _479
REMARK  203  A    between atoms: _479  and  _480
REMARK  204  A    between atoms: _479  and  _482
REMARK  205  A    between atoms: _482  and  _483
REMARK  206  A    between atoms: _488  and  _490
REMARK  207  A    between atoms: _490  and  _491
REMARK  208  A    between atoms: _490  and  _493
REMARK  209  A    between atoms: _493  and  _494
REMARK  210  A    between atoms: _497  and  _499
REMARK  211  A    between atoms: _499  and  _500
REMARK  212  A    between atoms: _502  and  _504
REMARK  213  A    between atoms: _504  and  _505
REMARK  214  A    between atoms: _504  and  _507
REMARK  215  A    between atoms: _507  and  _508
REMARK  216  A    between atoms: _508  and  _509
REMARK  217  A    between atoms: _512  and  _514
REMARK  218  A    between atoms: _514  and  _515
REMARK  219  A    between atoms: _514  and  _517
REMARK  220  A    between atoms: _517  and  _518
REMARK  221  A    between atoms: _521  and  _523
REMARK  222  A    between atoms: _523  and  _524
REMARK  223  A    between atoms: _523  and  _526
REMARK  224  A    between atoms: _526  and  _527
REMARK  225  A    between atoms: _529  and  _531
REMARK  226  A    between atoms: _531  and  _532
REMARK  227  A    between atoms: _531  and  _534
REMARK  228  A    between atoms: _534  and  _535
REMARK  229  A    between atoms: _538  and  _540
REMARK  230  A    between atoms: _540  and  _541
REMARK  231  A    between atoms: _540  and  _543
REMARK  232  A    between atoms: _543  and  _544
REMARK  233  A    between atoms: _544  and  _545
REMARK  234  A    between atoms: _547  and  _549
REMARK  235  A    between atoms: _549  and  _550
REMARK  236  A    between atoms: _553  and  _555
REMARK  237  A    between atoms: _555  and  _556
REMARK  238  A    between atoms: _559  and  _561
REMARK  239  A    between atoms: _561  and  _562
REMARK  240  A    between atoms: _561  and  _564
REMARK  241  A    between atoms: _564  and  _565
REMARK  242  A    between atoms: _568  and  _570
REMARK  243  A    between atoms: _570  and  _571
REMARK  244  A    between atoms: _574  and  _576
REMARK  245  A    between atoms: _576  and  _577
REMARK  246  A    between atoms: _580  and  _582
REMARK  247  A    between atoms: _582  and  _583
REMARK  248  A    between atoms: _585  and  _587
REMARK  249  A    between atoms: _587  and  _588
REMARK  250  A    between atoms: _587  and  _590
REMARK  251  A    between atoms: _590  and  _591
REMARK                            x       y       z     vdW  Elec       q    Type
REMARK                         _______ _______ _______ _____ _____    ______ ____
ROOT
ATOM      1  O   HOH     1      30.175  28.324  15.684  0.00  0.00    +0.000 OA
ENDROOT
TORSDOF 0
REMARK  Name = ../refined-set-2016/3cda/3cda_pocket.pdb
REMARK  251 active torsions:
REMARK  status: ('A' for Active; 'I' for Inactive)
REMARK    1  A    between atoms: _1  and  _3
REMARK    2  A    between atoms: _3  and  _4
REMARK    3  A    between atoms: _3  and  _6
REMARK    4  A    between atoms: _6  and  _7
REMARK    5  A    between atoms: _12  and  _13
REMARK    6  A    between atoms: _15  and  _17
REMARK    7  A    between atoms: _17  and  _18
REMARK    8  A    between atoms: _17  and  _20
REMARK    9  A    between atoms: _20  and  _21
REMARK   10  A    between atoms: _21  and  _22
REMARK   11  A    between atoms: _25  and  _27
REMARK   12  A    between atoms: _27  and  _28
REMARK   13  A    between atoms: _27  and  _30
REMARK   14  A    between atoms: _30  and  _31
REMARK   15  A    between atoms: _34  and  _36
REMARK   16  A    between atoms: _36  and  _37
REMARK   17  A    between atoms: _36  and  _39
REMARK   18  A    between atoms: _39  and  _40
REMARK   19  A    between atoms: _40  and  _41
REMARK   20  A    between atoms: _41  and  _42
REMARK   21  A    between atoms: _51  and  _53
REMARK   22  A    between atoms: _53  and  _54
REMARK   23  A    between atoms: _57  and  _58
REMARK   24  A    between atoms: _63  and  _65
REMARK   25  A    between atoms: _65  and  _66
REMARK   26  A    between atoms: _65  and  _68
REMARK   27  A    between atoms: _68  and  _69
REMARK   28  A    between atoms: _69  and  _70
REMARK   29  A    between atoms: _72  and  _74
REMARK   30  A    between atoms: _74  and  _75
REMARK   31  A    between atoms: _74  and  _77
REMARK   32  A    between atoms: _77  and  _78
REMARK   33  A    between atoms: _78  and  _79
REMARK   34  A    between atoms: _81  and  _83
REMARK   35  A    between atoms: _83  and  _84
REMARK   36  A    between atoms: _83  and  _86
REMARK   37  A    between atoms: _86  and  _87
REMARK   38  A    between atoms: _92  and  _94
REMARK   39  A    between atoms: _94  and  _95
REMARK   40  A    between atoms: _94  and  _97
REMARK   41  A    between atoms: _97  and  _98
REMARK   42  A    between atoms: _101  and  _103
REMARK   43  A    between atoms: _103  and  _104
REMARK   44  A    between atoms: _103  and  _106
REMARK   45  A    between atoms: _106  and  _107
REMARK   46  A    between atoms: _109  and  _111
REMARK   47  A    between atoms: _111  and  _112
REMARK   48  A    between atoms: _111  and  _114
REMARK   49  A    between atoms: _114  and  _115
REMARK   50  A    between atoms: _115  and  _116
REMARK   51  A    between atoms: _116  and  _117
REMARK   52  A    between atoms: _117  and  _118
REMARK   53  A    between atoms: _122  and  _124
REMARK   54  A    between atoms: _124  and  _125
REMARK   55  A    between atoms: _124  and  _127
REMARK   56  A    between atoms: _127  and  _128
REMARK   57  A    between atoms: _131  and  _133
REMARK   58  A    between atoms: _133  and  _134
REMARK   59  A    between atoms: _133  and  _136
REMARK   60  A    between atoms: _136  and  _137
REMARK   61  A    between atoms: _137  and  _138
REMARK   62  A    between atoms: _141  and  _143
REMARK   63  A    between atoms: _143  and  _144
REMARK   64  A    between atoms: _147  and  _149
REMARK   65  A    between atoms: _149  and  _150
REMARK   66  A    between atoms: _149  and  _152
REMARK   67  A    between atoms: _155  and  _157
REMARK   68  A    between atoms: _157  and  _158
REMARK   69  A    between atoms: _157  and  _160
REMARK   70  A    between atoms: _160  and  _161
REMARK   71  A    between atoms: _163  and  _165
REMARK   72  A    between atoms: _165  and  _166
REMARK   73  A    between atoms: _168  and  _170
REMARK   74  A    between atoms: _170  and  _171
REMARK   75  A    between atoms: _170  and  _173
REMARK   76  A    between atoms: _173  and  _174
REMARK   77  A    between atoms: _179  and  _181
REMARK   78  A    between atoms: _181  and  _182
REMARK   79  A    between atoms: _181  and  _184
REMARK   80  A    between atoms: _184  and  _185
REMARK   81  A    between atoms: _190  and  _191
REMARK   82  A    between atoms: _193  and  _195
REMARK   83  A    between atoms: _195  and  _196
REMARK   84  A    between atoms: _195  and  _198
REMARK   85  A    between atoms: _200  and  _202
REMARK   86  A    between atoms: _202  and  _203
REMARK   87  A    between atoms: _202  and  _205
REMARK   88  A    between atoms: _205  and  _206
REMARK   89  A    between atoms: _209  and  _211
REMARK   90  A    between atoms: _211  and  _212
REMARK   91  A    between atoms: _211  and  _214
REMARK   92  A    between atoms: _214  and  _215
REMARK   93  A    between atoms: _218  and  _220
REMARK   94  A    between atoms: _220  and  _221
REMARK   95  A    between atoms: _220  and  _223
REMARK   96  A    between atoms: _223  and  _224
REMARK   97  A    between atoms: _224  and  _225
REMARK   98  A    between atoms: _225  and  _226
REMARK   99  A    between atoms: _226  and  _227
REMARK  100  A    between atoms: _231  and  _233
REMARK  101  A    between atoms: _233  and  _234
REMARK  102  A    between atoms: _233  and  _236
REMARK  103  A    between atoms: _236  and  _237
REMARK  104  A    between atoms: _237  and  _238
REMARK  105  A    between atoms: _238  and  _239
REMARK  106  A    between atoms: _239  and  _240
REMARK  107  A    between atoms: _244  and  _246
REMARK  108  A    between atoms: _246  and  _247
REMARK  109  A    between atoms: _246  and  _249
REMARK  110  A    between atoms: _249  and  _250
REMARK  111  A    between atoms: _250  and  _251
REMARK  112  A    between atoms: _251  and  _252
REMARK  113  A    between atoms: _261  and  _263
REMARK  114  A    between atoms: _263  and  _264
REMARK  115  A    between atoms: _263  and  _266
REMARK  116  A    between atoms: _266  and  _267
REMARK  117  A    between atoms: _270  and  _272
REMARK  118  A    between atoms: _272  and  _273
REMARK  119  A    between atoms: _276  and  _278
REMARK  120  A    between atoms: _278  and  _279
REMARK  121  A    between atoms: _278  and  _281
REMARK  122  A    between atoms: _281  and  _282
REMARK  123  A    between atoms: _282  and  _283
REMARK  124  A    between atoms: _288  and  _290
REMARK  125  A    between atoms: _290  and  _291
REMARK  126  A    between atoms: _290  and  _293
REMARK  127  A    between atoms: _293  and  _294
REMARK  128  A    between atoms: _294  and  _295
REMARK  129  A    between atoms: _298  and  _300
REMARK  130  A    between atoms: _300  and  _301
REMARK  131  A    between atoms: _303  and  _305
REMARK  132  A    between atoms: _305  and  _306
REMARK  133  A    between atoms: _305  and  _308
REMARK  134  A    between atoms: _310  and  _312
REMARK  135  A    between atoms: _312  and  _313
REMARK  136  A    between atoms: _312  and  _315
REMARK  137  A    between atoms: _315  and  _316
REMARK  138  A    between atoms: _319  and  _321
REMARK  139  A    between atoms: _321  and  _322
REMARK  140  A    between atoms: _321  and  _324
REMARK  141  A    between atoms: _327  and  _329
REMARK  142  A    between atoms: _329  and  _330
REMARK  143  A    between atoms: _333  and  _335
REMARK  144  A    between atoms: _335  and  _336
REMARK  145  A    between atoms: _335  and  _338
REMARK  146  A    between atoms: _338  and  _339
REMARK  147  A    between atoms: _341  and  _343
REMARK  148  A    between atoms: _343  and  _344
REMARK  149  A    between atoms: _343  and  _346
REMARK  150  A    between atoms: _346  and  _347
REMARK  151  A    between atoms: _350  and  _352
REMARK  152  A    between atoms: _352  and  _353
REMARK  153  A    between atoms: _352  and  _355
REMARK  154  A    between atoms: _355  and  _356
REMARK  155  A    between atoms: _361  and  _363
REMARK  156  A    between atoms: _363  and  _364
REMARK  157  A    between atoms: _363  and  _366
REMARK  158  A    between atoms: _366  and  _367
REMARK  159  A    between atoms: _367  and  _368
REMARK  160  A    between atoms: _368  and  _369
REMARK  161  A    between atoms: _378  and  _380
REMARK  162  A    between atoms: _380  and  _381
REMARK  163  A    between atoms: _383  and  _385
REMARK  164  A    between atoms: _385  and  _386
REMARK  165  A    between atoms: _385  and  _388
REMARK  166  A    between atoms: _391  and  _393
REMARK  167  A    between atoms: _393  and  _394
REMARK  168  A    between atoms: _393  and  _396
REMARK  169  A    between atoms: _396  and  _397
REMARK  170  A    between atoms: _400  and  _402
REMARK  171  A    between atoms: _402  and  _403
REMARK  172  A    between atoms: _402  and  _405
REMARK  173  A    between atoms: _405  and  _406
REMARK  174  A    between atoms: _406  and  _407
REMARK  175  A    between atoms: _407  and  _408
REMARK  176  A    between atoms: _408  and  _409
REMARK  177  A    between atoms: _413  and  _415
REMARK  178  A    between atoms: _415  and  _416
REMARK  179  A    between atoms: _415  and  _418
REMARK  180  A    between atoms: _418  and  _419
REMARK  181  A    between atoms: _419  and  _420
REMARK  182  A    between atoms: _420  and  _421
REMARK  183  A    between atoms: _421  and  _422
REMARK  184  A    between atoms: _426  and  _428
REMARK  185  A    between atoms: _428  and  _429
REMARK  186  A    between atoms: _428  and  _431
REMARK  187  A    between atoms: _431  and  _432
REMARK  188  A    between atoms: _437  and  _439
REMARK  189  A    between atoms: _439  and  _440
REMARK  190  A    between atoms: _439  and  _442
REMARK  191  A    between atoms: _442  and  _443
REMARK  192  A    between atoms: _448  and  _450
REMARK  193  A    between atoms: _450  and  _451
REMARK  194  A    between atoms: _454  and  _456
REMARK  195  A    between atoms: _456  and  _457
REMARK  196  A    between atoms: _456  and  _459
REMARK  197  A    between atoms: _459  and  _460
REMARK  198  A    between atoms: _465  and  _467
REMARK  199  A    between atoms: _467  and  _468
REMARK  200  A    between atoms: _471  and  _473
REMARK  201  A    between atoms: _473  and  _474
REMARK  202  A    between atoms: _477  and  _479
REMARK  203  A    between atoms: _479  and  _480
REMARK  204  A    between atoms: _479  and  _482
REMARK  205  A    between atoms: _482  and  _483
REMARK  206  A    between atoms: _488  and  _490
REMARK  207  A    between atoms: _490  and  _491
REMARK  208  A    between atoms: _490  and  _493
REMARK  209  A    between atoms: _493  and  _494
REMARK  210  A    between atoms: _497  and  _499
REMARK  211  A    between atoms: _499  and  _500
REMARK  212  A    between atoms: _502  and  _504
REMARK  213  A    between atoms: _504  and  _505
REMARK  214  A    between atoms: _504  and  _507
REMARK  215  A    between atoms: _507  and  _508
REMARK  216  A    between atoms: _508  and  _509
REMARK  217  A    between atoms: _512  and  _514
REMARK  218  A    between atoms: _514  and  _515
REMARK  219  A    between atoms: _514  and  _517
REMARK  220  A    between atoms: _517  and  _518
REMARK  221  A    between atoms: _521  and  _523
REMARK  222  A    between atoms: _523  and  _524
REMARK  223  A    between atoms: _523  and  _526
REMARK  224  A    between atoms: _526  and  _527
REMARK  225  A    between atoms: _529  and  _531
REMARK  226  A    between atoms: _531  and  _532
REMARK  227  A    between atoms: _531  and  _534
REMARK  228  A    between atoms: _534  and  _535
REMARK  229  A    between atoms: _538  and  _540
REMARK  230  A    between atoms: _540  and  _541
REMARK  231  A    between atoms: _540  and  _543
REMARK  232  A    between atoms: _543  and  _544
REMARK  233  A    between atoms: _544  and  _545
REMARK  234  A    between atoms: _547  and  _549
REMARK  235  A    between atoms: _549  and  _550
REMARK  236  A    between atoms: _553  and  _555
REMARK  237  A    between atoms: _555  and  _556
REMARK  238  A    between atoms: _559  and  _561
REMARK  239  A    between atoms: _561  and  _562
REMARK  240  A    between atoms: _561  and  _564
REMARK  241  A    between atoms: _564  and  _565
REMARK  242  A    between atoms: _568  and  _570
REMARK  243  A    between atoms: _570  and  _571
REMARK  244  A    between atoms: _574  and  _576
REMARK  245  A    between atoms: _576  and  _577
REMARK  246  A    between atoms: _580  and  _582
REMARK  247  A    between atoms: _582  and  _583
REMARK  248  A    between atoms: _585  and  _587
REMARK  249  A    between atoms: _587  and  _588
REMARK  250  A    between atoms: _587  and  _590
REMARK  251  A    between atoms: _590  and  _591
REMARK                            x       y       z     vdW  Elec       q    Type
REMARK                         _______ _______ _______ _____ _____    ______ ____
ROOT
ATOM      1  O   HOH     1      16.701  26.170  11.117  0.00  0.00    +0.000 OA
ENDROOT
TORSDOF 0
REMARK  Name = ../refined-set-2016/3cda/3cda_pocket.pdb
REMARK  251 active torsions:
REMARK  status: ('A' for Active; 'I' for Inactive)
REMARK    1  A    between atoms: _1  and  _3
REMARK    2  A    between atoms: _3  and  _4
REMARK    3  A    between atoms: _3  and  _6
REMARK    4  A    between atoms: _6  and  _7
REMARK    5  A    between atoms: _12  and  _13
REMARK    6  A    between atoms: _15  and  _17
REMARK    7  A    between atoms: _17  and  _18
REMARK    8  A    between atoms: _17  and  _20
REMARK    9  A    between atoms: _20  and  _21
REMARK   10  A    between atoms: _21  and  _22
REMARK   11  A    between atoms: _25  and  _27
REMARK   12  A    between atoms: _27  and  _28
REMARK   13  A    between atoms: _27  and  _30
REMARK   14  A    between atoms: _30  and  _31
REMARK   15  A    between atoms: _34  and  _36
REMARK   16  A    between atoms: _36  and  _37
REMARK   17  A    between atoms: _36  and  _39
REMARK   18  A    between atoms: _39  and  _40
REMARK   19  A    between atoms: _40  and  _41
REMARK   20  A    between atoms: _41  and  _42
REMARK   21  A    between atoms: _51  and  _53
REMARK   22  A    between atoms: _53  and  _54
REMARK   23  A    between atoms: _57  and  _58
REMARK   24  A    between atoms: _63  and  _65
REMARK   25  A    between atoms: _65  and  _66
REMARK   26  A    between atoms: _65  and  _68
REMARK   27  A    between atoms: _68  and  _69
REMARK   28  A    between atoms: _69  and  _70
REMARK   29  A    between atoms: _72  and  _74
REMARK   30  A    between atoms: _74  and  _75
REMARK   31  A    between atoms: _74  and  _77
REMARK   32  A    between atoms: _77  and  _78
REMARK   33  A    between atoms: _78  and  _79
REMARK   34  A    between atoms: _81  and  _83
REMARK   35  A    between atoms: _83  and  _84
REMARK   36  A    between atoms: _83  and  _86
REMARK   37  A    between atoms: _86  and  _87
REMARK   38  A    between atoms: _92  and  _94
REMARK   39  A    between atoms: _94  and  _95
REMARK   40  A    between atoms: _94  and  _97
REMARK   41  A    between atoms: _97  and  _98
REMARK   42  A    between atoms: _101  and  _103
REMARK   43  A    between atoms: _103  and  _104
REMARK   44  A    between atoms: _103  and  _106
REMARK   45  A    between atoms: _106  and  _107
REMARK   46  A    between atoms: _109  and  _111
REMARK   47  A    between atoms: _111  and  _112
REMARK   48  A    between atoms: _111  and  _114
REMARK   49  A    between atoms: _114  and  _115
REMARK   50  A    between atoms: _115  and  _116
REMARK   51  A    between atoms: _116  and  _117
REMARK   52  A    between atoms: _117  and  _118
REMARK   53  A    between atoms: _122  and  _124
REMARK   54  A    between atoms: _124  and  _125
REMARK   55  A    between atoms: _124  and  _127
REMARK   56  A    between atoms: _127  and  _128
REMARK   57  A    between atoms: _131  and  _133
REMARK   58  A    between atoms: _133  and  _134
REMARK   59  A    between atoms: _133  and  _136
REMARK   60  A    between atoms: _136  and  _137
REMARK   61  A    between atoms: _137  and  _138
REMARK   62  A    between atoms: _141  and  _143
REMARK   63  A    between atoms: _143  and  _144
REMARK   64  A    between atoms: _147  and  _149
REMARK   65  A    between atoms: _149  and  _150
REMARK   66  A    between atoms: _149  and  _152
REMARK   67  A    between atoms: _155  and  _157
REMARK   68  A    between atoms: _157  and  _158
REMARK   69  A    between atoms: _157  and  _160
REMARK   70  A    between atoms: _160  and  _161
REMARK   71  A    between atoms: _163  and  _165
REMARK   72  A    between atoms: _165  and  _166
REMARK   73  A    between atoms: _168  and  _170
REMARK   74  A    between atoms: _170  and  _171
REMARK   75  A    between atoms: _170  and  _173
REMARK   76  A    between atoms: _173  and  _174
REMARK   77  A    between atoms: _179  and  _181
REMARK   78  A    between atoms: _181  and  _182
REMARK   79  A    between atoms: _181  and  _184
REMARK   80  A    between atoms: _184  and  _185
REMARK   81  A    between atoms: _190  and  _191
REMARK   82  A    between atoms: _193  and  _195
REMARK   83  A    between atoms: _195  and  _196
REMARK   84  A    between atoms: _195  and  _198
REMARK   85  A    between atoms: _200  and  _202
REMARK   86  A    between atoms: _202  and  _203
REMARK   87  A    between atoms: _202  and  _205
REMARK   88  A    between atoms: _205  and  _206
REMARK   89  A    between atoms: _209  and  _211
REMARK   90  A    between atoms: _211  and  _212
REMARK   91  A    between atoms: _211  and  _214
REMARK   92  A    between atoms: _214  and  _215
REMARK   93  A    between atoms: _218  and  _220
REMARK   94  A    between atoms: _220  and  _221
REMARK   95  A    between atoms: _220  and  _223
REMARK   96  A    between atoms: _223  and  _224
REMARK   97  A    between atoms: _224  and  _225
REMARK   98  A    between atoms: _225  and  _226
REMARK   99  A    between atoms: _226  and  _227
REMARK  100  A    between atoms: _231  and  _233
REMARK  101  A    between atoms: _233  and  _234
REMARK  102  A    between atoms: _233  and  _236
REMARK  103  A    between atoms: _236  and  _237
REMARK  104  A    between atoms: _237  and  _238
REMARK  105  A    between atoms: _238  and  _239
REMARK  106  A    between atoms: _239  and  _240
REMARK  107  A    between atoms: _244  and  _246
REMARK  108  A    between atoms: _246  and  _247
REMARK  109  A    between atoms: _246  and  _249
REMARK  110  A    between atoms: _249  and  _250
REMARK  111  A    between atoms: _250  and  _251
REMARK  112  A    between atoms: _251  and  _252
REMARK  113  A    between atoms: _261  and  _263
REMARK  114  A    between atoms: _263  and  _264
REMARK  115  A    between atoms: _263  and  _266
REMARK  116  A    between atoms: _266  and  _267
REMARK  117  A    between atoms: _270  and  _272
REMARK  118  A    between atoms: _272  and  _273
REMARK  119  A    between atoms: _276  and  _278
REMARK  120  A    between atoms: _278  and  _279
REMARK  121  A    between atoms: _278  and  _281
REMARK  122  A    between atoms: _281  and  _282
REMARK  123  A    between atoms: _282  and  _283
REMARK  124  A    between atoms: _288  and  _290
REMARK  125  A    between atoms: _290  and  _291
REMARK  126  A    between atoms: _290  and  _293
REMARK  127  A    between atoms: _293  and  _294
REMARK  128  A    between atoms: _294  and  _295
REMARK  129  A    between atoms: _298  and  _300
REMARK  130  A    between atoms: _300  and  _301
REMARK  131  A    between atoms: _303  and  _305
REMARK  132  A    between atoms: _305  and  _306
REMARK  133  A    between atoms: _305  and  _308
REMARK  134  A    between atoms: _310  and  _312
REMARK  135  A    between atoms: _312  and  _313
REMARK  136  A    between atoms: _312  and  _315
REMARK  137  A    between atoms: _315  and  _316
REMARK  138  A    between atoms: _319  and  _321
REMARK  139  A    between atoms: _321  and  _322
REMARK  140  A    between atoms: _321  and  _324
REMARK  141  A    between atoms: _327  and  _329
REMARK  142  A    between atoms: _329  and  _330
REMARK  143  A    between atoms: _333  and  _335
REMARK  144  A    between atoms: _335  and  _336
REMARK  145  A    between atoms: _335  and  _338
REMARK  146  A    between atoms: _338  and  _339
REMARK  147  A    between atoms: _341  and  _343
REMARK  148  A    between atoms: _343  and  _344
REMARK  149  A    between atoms: _343  and  _346
REMARK  150  A    between atoms: _346  and  _347
REMARK  151  A    between atoms: _350  and  _352
REMARK  152  A    between atoms: _352  and  _353
REMARK  153  A    between atoms: _352  and  _355
REMARK  154  A    between atoms: _355  and  _356
REMARK  155  A    between atoms: _361  and  _363
REMARK  156  A    between atoms: _363  and  _364
REMARK  157  A    between atoms: _363  and  _366
REMARK  158  A    between atoms: _366  and  _367
REMARK  159  A    between atoms: _367  and  _368
REMARK  160  A    between atoms: _368  and  _369
REMARK  161  A    between atoms: _378  and  _380
REMARK  162  A    between atoms: _380  and  _381
REMARK  163  A    between atoms: _383  and  _385
REMARK  164  A    between atoms: _385  and  _386
REMARK  165  A    between atoms: _385  and  _388
REMARK  166  A    between atoms: _391  and  _393
REMARK  167  A    between atoms: _393  and  _394
REMARK  168  A    between atoms: _393  and  _396
REMARK  169  A    between atoms: _396  and  _397
REMARK  170  A    between atoms: _400  and  _402
REMARK  171  A    between atoms: _402  and  _403
REMARK  172  A    between atoms: _402  and  _405
REMARK  173  A    between atoms: _405  and  _406
REMARK  174  A    between atoms: _406  and  _407
REMARK  175  A    between atoms: _407  and  _408
REMARK  176  A    between atoms: _408  and  _409
REMARK  177  A    between atoms: _413  and  _415
REMARK  178  A    between atoms: _415  and  _416
REMARK  179  A    between atoms: _415  and  _418
REMARK  180  A    between atoms: _418  and  _419
REMARK  181  A    between atoms: _419  and  _420
REMARK  182  A    between atoms: _420  and  _421
REMARK  183  A    between atoms: _421  and  _422
REMARK  184  A    between atoms: _426  and  _428
REMARK  185  A    between atoms: _428  and  _429
REMARK  186  A    between atoms: _428  and  _431
REMARK  187  A    between atoms: _431  and  _432
REMARK  188  A    between atoms: _437  and  _439
REMARK  189  A    between atoms: _439  and  _440
REMARK  190  A    between atoms: _439  and  _442
REMARK  191  A    between atoms: _442  and  _443
REMARK  192  A    between atoms: _448  and  _450
REMARK  193  A    between atoms: _450  and  _451
REMARK  194  A    between atoms: _454  and  _456
REMARK  195  A    between atoms: _456  and  _457
REMARK  196  A    between atoms: _456  and  _459
REMARK  197  A    between atoms: _459  and  _460
REMARK  198  A    between atoms: _465  and  _467
REMARK  199  A    between atoms: _467  and  _468
REMARK  200  A    between atoms: _471  and  _473
REMARK  201  A    between atoms: _473  and  _474
REMARK  202  A    between atoms: _477  and  _479
REMARK  203  A    between atoms: _479  and  _480
REMARK  204  A    between atoms: _479  and  _482
REMARK  205  A    between atoms: _482  and  _483
REMARK  206  A    between atoms: _488  and  _490
REMARK  207  A    between atoms: _490  and  _491
REMARK  208  A    between atoms: _490  and  _493
REMARK  209  A    between atoms: _493  and  _494
REMARK  210  A    between atoms: _497  and  _499
REMARK  211  A    between atoms: _499  and  _500
REMARK  212  A    between atoms: _502  and  _504
REMARK  213  A    between atoms: _504  and  _505
REMARK  214  A    between atoms: _504  and  _507
REMARK  215  A    between atoms: _507  and  _508
REMARK  216  A    between atoms: _508  and  _509
REMARK  217  A    between atoms: _512  and  _514
REMARK  218  A    between atoms: _514  and  _515
REMARK  219  A    between atoms: _514  and  _517
REMARK  220  A    between atoms: _517  and  _518
REMARK  221  A    between atoms: _521  and  _523
REMARK  222  A    between atoms: _523  and  _524
REMARK  223  A    between atoms: _523  and  _526
REMARK  224  A    between atoms: _526  and  _527
REMARK  225  A    between atoms: _529  and  _531
REMARK  226  A    between atoms: _531  and  _532
REMARK  227  A    between atoms: _531  and  _534
REMARK  228  A    between atoms: _534  and  _535
REMARK  229  A    between atoms: _538  and  _540
REMARK  230  A    between atoms: _540  and  _541
REMARK  231  A    between atoms: _540  and  _543
REMARK  232  A    between atoms: _543  and  _544
REMARK  233  A    between atoms: _544  and  _545
REMARK  234  A    between atoms: _547  and  _549
REMARK  235  A    between atoms: _549  and  _550
REMARK  236  A    between atoms: _553  and  _555
REMARK  237  A    between atoms: _555  and  _556
REMARK  238  A    between atoms: _559  and  _561
REMARK  239  A    between atoms: _561  and  _562
REMARK  240  A    between atoms: _561  and  _564
REMARK  241  A    between atoms: _564  and  _565
REMARK  242  A    between atoms: _568  and  _570
REMARK  243  A    between atoms: _570  and  _571
REMARK  244  A    between atoms: _574  and  _576
REMARK  245  A    between atoms: _576  and  _577
REMARK  246  A    between atoms: _580  and  _582
REMARK  247  A    between atoms: _582  and  _583
REMARK  248  A    between atoms: _585  and  _587
REMARK  249  A    between atoms: _587  and  _588
REMARK  250  A    between atoms: _587  and  _590
REMARK  251  A    between atoms: _590  and  _591
REMARK                            x       y       z     vdW  Elec       q    Type
REMARK                         _______ _______ _______ _____ _____    ______ ____
ROOT
ATOM      1  O   HOH     1      25.235  27.938  17.490  0.00  0.00    +0.000 OA
ENDROOT
TORSDOF 0
REMARK  Name = ../refined-set-2016/3cda/3cda_pocket.pdb
REMARK  251 active torsions:
REMARK  status: ('A' for Active; 'I' for Inactive)
REMARK    1  A    between atoms: _1  and  _3
REMARK    2  A    between atoms: _3  and  _4
REMARK    3  A    between atoms: _3  and  _6
REMARK    4  A    between atoms: _6  and  _7
REMARK    5  A    between atoms: _12  and  _13
REMARK    6  A    between atoms: _15  and  _17
REMARK    7  A    between atoms: _17  and  _18
REMARK    8  A    between atoms: _17  and  _20
REMARK    9  A    between atoms: _20  and  _21
REMARK   10  A    between atoms: _21  and  _22
REMARK   11  A    between atoms: _25  and  _27
REMARK   12  A    between atoms: _27  and  _28
REMARK   13  A    between atoms: _27  and  _30
REMARK   14  A    between atoms: _30  and  _31
REMARK   15  A    between atoms: _34  and  _36
REMARK   16  A    between atoms: _36  and  _37
REMARK   17  A    between atoms: _36  and  _39
REMARK   18  A    between atoms: _39  and  _40
REMARK   19  A    between atoms: _40  and  _41
REMARK   20  A    between atoms: _41  and  _42
REMARK   21  A    between atoms: _51  and  _53
REMARK   22  A    between atoms: _53  and  _54
REMARK   23  A    between atoms: _57  and  _58
REMARK   24  A    between atoms: _63  and  _65
REMARK   25  A    between atoms: _65  and  _66
REMARK   26  A    between atoms: _65  and  _68
REMARK   27  A    between atoms: _68  and  _69
REMARK   28  A    between atoms: _69  and  _70
REMARK   29  A    between atoms: _72  and  _74
REMARK   30  A    between atoms: _74  and  _75
REMARK   31  A    between atoms: _74  and  _77
REMARK   32  A    between atoms: _77  and  _78
REMARK   33  A    between atoms: _78  and  _79
REMARK   34  A    between atoms: _81  and  _83
REMARK   35  A    between atoms: _83  and  _84
REMARK   36  A    between atoms: _83  and  _86
REMARK   37  A    between atoms: _86  and  _87
REMARK   38  A    between atoms: _92  and  _94
REMARK   39  A    between atoms: _94  and  _95
REMARK   40  A    between atoms: _94  and  _97
REMARK   41  A    between atoms: _97  and  _98
REMARK   42  A    between atoms: _101  and  _103
REMARK   43  A    between atoms: _103  and  _104
REMARK   44  A    between atoms: _103  and  _106
REMARK   45  A    between atoms: _106  and  _107
REMARK   46  A    between atoms: _109  and  _111
REMARK   47  A    between atoms: _111  and  _112
REMARK   48  A    between atoms: _111  and  _114
REMARK   49  A    between atoms: _114  and  _115
REMARK   50  A    between atoms: _115  and  _116
REMARK   51  A    between atoms: _116  and  _117
REMARK   52  A    between atoms: _117  and  _118
REMARK   53  A    between atoms: _122  and  _124
REMARK   54  A    between atoms: _124  and  _125
REMARK   55  A    between atoms: _124  and  _127
REMARK   56  A    between atoms: _127  and  _128
REMARK   57  A    between atoms: _131  and  _133
REMARK   58  A    between atoms: _133  and  _134
REMARK   59  A    between atoms: _133  and  _136
REMARK   60  A    between atoms: _136  and  _137
REMARK   61  A    between atoms: _137  and  _138
REMARK   62  A    between atoms: _141  and  _143
REMARK   63  A    between atoms: _143  and  _144
REMARK   64  A    between atoms: _147  and  _149
REMARK   65  A    between atoms: _149  and  _150
REMARK   66  A    between atoms: _149  and  _152
REMARK   67  A    between atoms: _155  and  _157
REMARK   68  A    between atoms: _157  and  _158
REMARK   69  A    between atoms: _157  and  _160
REMARK   70  A    between atoms: _160  and  _161
REMARK   71  A    between atoms: _163  and  _165
REMARK   72  A    between atoms: _165  and  _166
REMARK   73  A    between atoms: _168  and  _170
REMARK   74  A    between atoms: _170  and  _171
REMARK   75  A    between atoms: _170  and  _173
REMARK   76  A    between atoms: _173  and  _174
REMARK   77  A    between atoms: _179  and  _181
REMARK   78  A    between atoms: _181  and  _182
REMARK   79  A    between atoms: _181  and  _184
REMARK   80  A    between atoms: _184  and  _185
REMARK   81  A    between atoms: _190  and  _191
REMARK   82  A    between atoms: _193  and  _195
REMARK   83  A    between atoms: _195  and  _196
REMARK   84  A    between atoms: _195  and  _198
REMARK   85  A    between atoms: _200  and  _202
REMARK   86  A    between atoms: _202  and  _203
REMARK   87  A    between atoms: _202  and  _205
REMARK   88  A    between atoms: _205  and  _206
REMARK   89  A    between atoms: _209  and  _211
REMARK   90  A    between atoms: _211  and  _212
REMARK   91  A    between atoms: _211  and  _214
REMARK   92  A    between atoms: _214  and  _215
REMARK   93  A    between atoms: _218  and  _220
REMARK   94  A    between atoms: _220  and  _221
REMARK   95  A    between atoms: _220  and  _223
REMARK   96  A    between atoms: _223  and  _224
REMARK   97  A    between atoms: _224  and  _225
REMARK   98  A    between atoms: _225  and  _226
REMARK   99  A    between atoms: _226  and  _227
REMARK  100  A    between atoms: _231  and  _233
REMARK  101  A    between atoms: _233  and  _234
REMARK  102  A    between atoms: _233  and  _236
REMARK  103  A    between atoms: _236  and  _237
REMARK  104  A    between atoms: _237  and  _238
REMARK  105  A    between atoms: _238  and  _239
REMARK  106  A    between atoms: _239  and  _240
REMARK  107  A    between atoms: _244  and  _246
REMARK  108  A    between atoms: _246  and  _247
REMARK  109  A    between atoms: _246  and  _249
REMARK  110  A    between atoms: _249  and  _250
REMARK  111  A    between atoms: _250  and  _251
REMARK  112  A    between atoms: _251  and  _252
REMARK  113  A    between atoms: _261  and  _263
REMARK  114  A    between atoms: _263  and  _264
REMARK  115  A    between atoms: _263  and  _266
REMARK  116  A    between atoms: _266  and  _267
REMARK  117  A    between atoms: _270  and  _272
REMARK  118  A    between atoms: _272  and  _273
REMARK  119  A    between atoms: _276  and  _278
REMARK  120  A    between atoms: _278  and  _279
REMARK  121  A    between atoms: _278  and  _281
REMARK  122  A    between atoms: _281  and  _282
REMARK  123  A    between atoms: _282  and  _283
REMARK  124  A    between atoms: _288  and  _290
REMARK  125  A    between atoms: _290  and  _291
REMARK  126  A    between atoms: _290  and  _293
REMARK  127  A    between atoms: _293  and  _294
REMARK  128  A    between atoms: _294  and  _295
REMARK  129  A    between atoms: _298  and  _300
REMARK  130  A    between atoms: _300  and  _301
REMARK  131  A    between atoms: _303  and  _305
REMARK  132  A    between atoms: _305  and  _306
REMARK  133  A    between atoms: _305  and  _308
REMARK  134  A    between atoms: _310  and  _312
REMARK  135  A    between atoms: _312  and  _313
REMARK  136  A    between atoms: _312  and  _315
REMARK  137  A    between atoms: _315  and  _316
REMARK  138  A    between atoms: _319  and  _321
REMARK  139  A    between atoms: _321  and  _322
REMARK  140  A    between atoms: _321  and  _324
REMARK  141  A    between atoms: _327  and  _329
REMARK  142  A    between atoms: _329  and  _330
REMARK  143  A    between atoms: _333  and  _335
REMARK  144  A    between atoms: _335  and  _336
REMARK  145  A    between atoms: _335  and  _338
REMARK  146  A    between atoms: _338  and  _339
REMARK  147  A    between atoms: _341  and  _343
REMARK  148  A    between atoms: _343  and  _344
REMARK  149  A    between atoms: _343  and  _346
REMARK  150  A    between atoms: _346  and  _347
REMARK  151  A    between atoms: _350  and  _352
REMARK  152  A    between atoms: _352  and  _353
REMARK  153  A    between atoms: _352  and  _355
REMARK  154  A    between atoms: _355  and  _356
REMARK  155  A    between atoms: _361  and  _363
REMARK  156  A    between atoms: _363  and  _364
REMARK  157  A    between atoms: _363  and  _366
REMARK  158  A    between atoms: _366  and  _367
REMARK  159  A    between atoms: _367  and  _368
REMARK  160  A    between atoms: _368  and  _369
REMARK  161  A    between atoms: _378  and  _380
REMARK  162  A    between atoms: _380  and  _381
REMARK  163  A    between atoms: _383  and  _385
REMARK  164  A    between atoms: _385  and  _386
REMARK  165  A    between atoms: _385  and  _388
REMARK  166  A    between atoms: _391  and  _393
REMARK  167  A    between atoms: _393  and  _394
REMARK  168  A    between atoms: _393  and  _396
REMARK  169  A    between atoms: _396  and  _397
REMARK  170  A    between atoms: _400  and  _402
REMARK  171  A    between atoms: _402  and  _403
REMARK  172  A    between atoms: _402  and  _405
REMARK  173  A    between atoms: _405  and  _406
REMARK  174  A    between atoms: _406  and  _407
REMARK  175  A    between atoms: _407  and  _408
REMARK  176  A    between atoms: _408  and  _409
REMARK  177  A    between atoms: _413  and  _415
REMARK  178  A    between atoms: _415  and  _416
REMARK  179  A    between atoms: _415  and  _418
REMARK  180  A    between atoms: _418  and  _419
REMARK  181  A    between atoms: _419  and  _420
REMARK  182  A    between atoms: _420  and  _421
REMARK  183  A    between atoms: _421  and  _422
REMARK  184  A    between atoms: _426  and  _428
REMARK  185  A    between atoms: _428  and  _429
REMARK  186  A    between atoms: _428  and  _431
REMARK  187  A    between atoms: _431  and  _432
REMARK  188  A    between atoms: _437  and  _439
REMARK  189  A    between atoms: _439  and  _440
REMARK  190  A    between atoms: _439  and  _442
REMARK  191  A    between atoms: _442  and  _443
REMARK  192  A    between atoms: _448  and  _450
REMARK  193  A    between atoms: _450  and  _451
REMARK  194  A    between atoms: _454  and  _456
REMARK  195  A    between atoms: _456  and  _457
REMARK  196  A    between atoms: _456  and  _459
REMARK  197  A    between atoms: _459  and  _460
REMARK  198  A    between atoms: _465  and  _467
REMARK  199  A    between atoms: _467  and  _468
REMARK  200  A    between atoms: _471  and  _473
REMARK  201  A    between atoms: _473  and  _474
REMARK  202  A    between atoms: _477  and  _479
REMARK  203  A    between atoms: _479  and  _480
REMARK  204  A    between atoms: _479  and  _482
REMARK  205  A    between atoms: _482  and  _483
REMARK  206  A    between atoms: _488  and  _490
REMARK  207  A    between atoms: _490  and  _491
REMARK  208  A    between atoms: _490  and  _493
REMARK  209  A    between atoms: _493  and  _494
REMARK  210  A    between atoms: _497  and  _499
REMARK  211  A    between atoms: _499  and  _500
REMARK  212  A    between atoms: _502  and  _504
REMARK  213  A    between atoms: _504  and  _505
REMARK  214  A    between atoms: _504  and  _507
REMARK  215  A    between atoms: _507  and  _508
REMARK  216  A    between atoms: _508  and  _509
REMARK  217  A    between atoms: _512  and  _514
REMARK  218  A    between atoms: _514  and  _515
REMARK  219  A    between atoms: _514  and  _517
REMARK  220  A    between atoms: _517  and  _518
REMARK  221  A    between atoms: _521  and  _523
REMARK  222  A    between atoms: _523  and  _524
REMARK  223  A    between atoms: _523  and  _526
REMARK  224  A    between atoms: _526  and  _527
REMARK  225  A    between atoms: _529  and  _531
REMARK  226  A    between atoms: _531  and  _532
REMARK  227  A    between atoms: _531  and  _534
REMARK  228  A    between atoms: _534  and  _535
REMARK  229  A    between atoms: _538  and  _540
REMARK  230  A    between atoms: _540  and  _541
REMARK  231  A    between atoms: _540  and  _543
REMARK  232  A    between atoms: _543  and  _544
REMARK  233  A    between atoms: _544  and  _545
REMARK  234  A    between atoms: _547  and  _549
REMARK  235  A    between atoms: _549  and  _550
REMARK  236  A    between atoms: _553  and  _555
REMARK  237  A    between atoms: _555  and  _556
REMARK  238  A    between atoms: _559  and  _561
REMARK  239  A    between atoms: _561  and  _562
REMARK  240  A    between atoms: _561  and  _564
REMARK  241  A    between atoms: _564  and  _565
REMARK  242  A    between atoms: _568  and  _570
REMARK  243  A    between atoms: _570  and  _571
REMARK  244  A    between atoms: _574  and  _576
REMARK  245  A    between atoms: _576  and  _577
REMARK  246  A    between atoms: _580  and  _582
REMARK  247  A    between atoms: _582  and  _583
REMARK  248  A    between atoms: _585  and  _587
REMARK  249  A    between atoms: _587  and  _588
REMARK  250  A    between atoms: _587  and  _590
REMARK  251  A    between atoms: _590  and  _591
REMARK                            x       y       z     vdW  Elec       q    Type
REMARK                         _______ _______ _______ _____ _____    ______ ____
ROOT
ATOM      1  O   HOH     1      21.944  29.102   6.275  0.00  0.00    +0.000 OA
ENDROOT
TORSDOF 0
REMARK  Name = ../refined-set-2016/3cda/3cda_pocket.pdb
REMARK  251 active torsions:
REMARK  status: ('A' for Active; 'I' for Inactive)
REMARK    1  A    between atoms: _1  and  _3
REMARK    2  A    between atoms: _3  and  _4
REMARK    3  A    between atoms: _3  and  _6
REMARK    4  A    between atoms: _6  and  _7
REMARK    5  A    between atoms: _12  and  _13
REMARK    6  A    between atoms: _15  and  _17
REMARK    7  A    between atoms: _17  and  _18
REMARK    8  A    between atoms: _17  and  _20
REMARK    9  A    between atoms: _20  and  _21
REMARK   10  A    between atoms: _21  and  _22
REMARK   11  A    between atoms: _25  and  _27
REMARK   12  A    between atoms: _27  and  _28
REMARK   13  A    between atoms: _27  and  _30
REMARK   14  A    between atoms: _30  and  _31
REMARK   15  A    between atoms: _34  and  _36
REMARK   16  A    between atoms: _36  and  _37
REMARK   17  A    between atoms: _36  and  _39
REMARK   18  A    between atoms: _39  and  _40
REMARK   19  A    between atoms: _40  and  _41
REMARK   20  A    between atoms: _41  and  _42
REMARK   21  A    between atoms: _51  and  _53
REMARK   22  A    between atoms: _53  and  _54
REMARK   23  A    between atoms: _57  and  _58
REMARK   24  A    between atoms: _63  and  _65
REMARK   25  A    between atoms: _65  and  _66
REMARK   26  A    between atoms: _65  and  _68
REMARK   27  A    between atoms: _68  and  _69
REMARK   28  A    between atoms: _69  and  _70
REMARK   29  A    between atoms: _72  and  _74
REMARK   30  A    between atoms: _74  and  _75
REMARK   31  A    between atoms: _74  and  _77
REMARK   32  A    between atoms: _77  and  _78
REMARK   33  A    between atoms: _78  and  _79
REMARK   34  A    between atoms: _81  and  _83
REMARK   35  A    between atoms: _83  and  _84
REMARK   36  A    between atoms: _83  and  _86
REMARK   37  A    between atoms: _86  and  _87
REMARK   38  A    between atoms: _92  and  _94
REMARK   39  A    between atoms: _94  and  _95
REMARK   40  A    between atoms: _94  and  _97
REMARK   41  A    between atoms: _97  and  _98
REMARK   42  A    between atoms: _101  and  _103
REMARK   43  A    between atoms: _103  and  _104
REMARK   44  A    between atoms: _103  and  _106
REMARK   45  A    between atoms: _106  and  _107
REMARK   46  A    between atoms: _109  and  _111
REMARK   47  A    between atoms: _111  and  _112
REMARK   48  A    between atoms: _111  and  _114
REMARK   49  A    between atoms: _114  and  _115
REMARK   50  A    between atoms: _115  and  _116
REMARK   51  A    between atoms: _116  and  _117
REMARK   52  A    between atoms: _117  and  _118
REMARK   53  A    between atoms: _122  and  _124
REMARK   54  A    between atoms: _124  and  _125
REMARK   55  A    between atoms: _124  and  _127
REMARK   56  A    between atoms: _127  and  _128
REMARK   57  A    between atoms: _131  and  _133
REMARK   58  A    between atoms: _133  and  _134
REMARK   59  A    between atoms: _133  and  _136
REMARK   60  A    between atoms: _136  and  _137
REMARK   61  A    between atoms: _137  and  _138
REMARK   62  A    between atoms: _141  and  _143
REMARK   63  A    between atoms: _143  and  _144
REMARK   64  A    between atoms: _147  and  _149
REMARK   65  A    between atoms: _149  and  _150
REMARK   66  A    between atoms: _149  and  _152
REMARK   67  A    between atoms: _155  and  _157
REMARK   68  A    between atoms: _157  and  _158
REMARK   69  A    between atoms: _157  and  _160
REMARK   70  A    between atoms: _160  and  _161
REMARK   71  A    between atoms: _163  and  _165
REMARK   72  A    between atoms: _165  and  _166
REMARK   73  A    between atoms: _168  and  _170
REMARK   74  A    between atoms: _170  and  _171
REMARK   75  A    between atoms: _170  and  _173
REMARK   76  A    between atoms: _173  and  _174
REMARK   77  A    between atoms: _179  and  _181
REMARK   78  A    between atoms: _181  and  _182
REMARK   79  A    between atoms: _181  and  _184
REMARK   80  A    between atoms: _184  and  _185
REMARK   81  A    between atoms: _190  and  _191
REMARK   82  A    between atoms: _193  and  _195
REMARK   83  A    between atoms: _195  and  _196
REMARK   84  A    between atoms: _195  and  _198
REMARK   85  A    between atoms: _200  and  _202
REMARK   86  A    between atoms: _202  and  _203
REMARK   87  A    between atoms: _202  and  _205
REMARK   88  A    between atoms: _205  and  _206
REMARK   89  A    between atoms: _209  and  _211
REMARK   90  A    between atoms: _211  and  _212
REMARK   91  A    between atoms: _211  and  _214
REMARK   92  A    between atoms: _214  and  _215
REMARK   93  A    between atoms: _218  and  _220
REMARK   94  A    between atoms: _220  and  _221
REMARK   95  A    between atoms: _220  and  _223
REMARK   96  A    between atoms: _223  and  _224
REMARK   97  A    between atoms: _224  and  _225
REMARK   98  A    between atoms: _225  and  _226
REMARK   99  A    between atoms: _226  and  _227
REMARK  100  A    between atoms: _231  and  _233
REMARK  101  A    between atoms: _233  and  _234
REMARK  102  A    between atoms: _233  and  _236
REMARK  103  A    between atoms: _236  and  _237
REMARK  104  A    between atoms: _237  and  _238
REMARK  105  A    between atoms: _238  and  _239
REMARK  106  A    between atoms: _239  and  _240
REMARK  107  A    between atoms: _244  and  _246
REMARK  108  A    between atoms: _246  and  _247
REMARK  109  A    between atoms: _246  and  _249
REMARK  110  A    between atoms: _249  and  _250
REMARK  111  A    between atoms: _250  and  _251
REMARK  112  A    between atoms: _251  and  _252
REMARK  113  A    between atoms: _261  and  _263
REMARK  114  A    between atoms: _263  and  _264
REMARK  115  A    between atoms: _263  and  _266
REMARK  116  A    between atoms: _266  and  _267
REMARK  117  A    between atoms: _270  and  _272
REMARK  118  A    between atoms: _272  and  _273
REMARK  119  A    between atoms: _276  and  _278
REMARK  120  A    between atoms: _278  and  _279
REMARK  121  A    between atoms: _278  and  _281
REMARK  122  A    between atoms: _281  and  _282
REMARK  123  A    between atoms: _282  and  _283
REMARK  124  A    between atoms: _288  and  _290
REMARK  125  A    between atoms: _290  and  _291
REMARK  126  A    between atoms: _290  and  _293
REMARK  127  A    between atoms: _293  and  _294
REMARK  128  A    between atoms: _294  and  _295
REMARK  129  A    between atoms: _298  and  _300
REMARK  130  A    between atoms: _300  and  _301
REMARK  131  A    between atoms: _303  and  _305
REMARK  132  A    between atoms: _305  and  _306
REMARK  133  A    between atoms: _305  and  _308
REMARK  134  A    between atoms: _310  and  _312
REMARK  135  A    between atoms: _312  and  _313
REMARK  136  A    between atoms: _312  and  _315
REMARK  137  A    between atoms: _315  and  _316
REMARK  138  A    between atoms: _319  and  _321
REMARK  139  A    between atoms: _321  and  _322
REMARK  140  A    between atoms: _321  and  _324
REMARK  141  A    between atoms: _327  and  _329
REMARK  142  A    between atoms: _329  and  _330
REMARK  143  A    between atoms: _333  and  _335
REMARK  144  A    between atoms: _335  and  _336
REMARK  145  A    between atoms: _335  and  _338
REMARK  146  A    between atoms: _338  and  _339
REMARK  147  A    between atoms: _341  and  _343
REMARK  148  A    between atoms: _343  and  _344
REMARK  149  A    between atoms: _343  and  _346
REMARK  150  A    between atoms: _346  and  _347
REMARK  151  A    between atoms: _350  and  _352
REMARK  152  A    between atoms: _352  and  _353
REMARK  153  A    between atoms: _352  and  _355
REMARK  154  A    between atoms: _355  and  _356
REMARK  155  A    between atoms: _361  and  _363
REMARK  156  A    between atoms: _363  and  _364
REMARK  157  A    between atoms: _363  and  _366
REMARK  158  A    between atoms: _366  and  _367
REMARK  159  A    between atoms: _367  and  _368
REMARK  160  A    between atoms: _368  and  _369
REMARK  161  A    between atoms: _378  and  _380
REMARK  162  A    between atoms: _380  and  _381
REMARK  163  A    between atoms: _383  and  _385
REMARK  164  A    between atoms: _385  and  _386
REMARK  165  A    between atoms: _385  and  _388
REMARK  166  A    between atoms: _391  and  _393
REMARK  167  A    between atoms: _393  and  _394
REMARK  168  A    between atoms: _393  and  _396
REMARK  169  A    between atoms: _396  and  _397
REMARK  170  A    between atoms: _400  and  _402
REMARK  171  A    between atoms: _402  and  _403
REMARK  172  A    between atoms: _402  and  _405
REMARK  173  A    between atoms: _405  and  _406
REMARK  174  A    between atoms: _406  and  _407
REMARK  175  A    between atoms: _407  and  _408
REMARK  176  A    between atoms: _408  and  _409
REMARK  177  A    between atoms: _413  and  _415
REMARK  178  A    between atoms: _415  and  _416
REMARK  179  A    between atoms: _415  and  _418
REMARK  180  A    between atoms: _418  and  _419
REMARK  181  A    between atoms: _419  and  _420
REMARK  182  A    between atoms: _420  and  _421
REMARK  183  A    between atoms: _421  and  _422
REMARK  184  A    between atoms: _426  and  _428
REMARK  185  A    between atoms: _428  and  _429
REMARK  186  A    between atoms: _428  and  _431
REMARK  187  A    between atoms: _431  and  _432
REMARK  188  A    between atoms: _437  and  _439
REMARK  189  A    between atoms: _439  and  _440
REMARK  190  A    between atoms: _439  and  _442
REMARK  191  A    between atoms: _442  and  _443
REMARK  192  A    between atoms: _448  and  _450
REMARK  193  A    between atoms: _450  and  _451
REMARK  194  A    between atoms: _454  and  _456
REMARK  195  A    between atoms: _456  and  _457
REMARK  196  A    between atoms: _456  and  _459
REMARK  197  A    between atoms: _459  and  _460
REMARK  198  A    between atoms: _465  and  _467
REMARK  199  A    between atoms: _467  and  _468
REMARK  200  A    between atoms: _471  and  _473
REMARK  201  A    between atoms: _473  and  _474
REMARK  202  A    between atoms: _477  and  _479
REMARK  203  A    between atoms: _479  and  _480
REMARK  204  A    between atoms: _479  and  _482
REMARK  205  A    between atoms: _482  and  _483
REMARK  206  A    between atoms: _488  and  _490
REMARK  207  A    between atoms: _490  and  _491
REMARK  208  A    between atoms: _490  and  _493
REMARK  209  A    between atoms: _493  and  _494
REMARK  210  A    between atoms: _497  and  _499
REMARK  211  A    between atoms: _499  and  _500
REMARK  212  A    between atoms: _502  and  _504
REMARK  213  A    between atoms: _504  and  _505
REMARK  214  A    between atoms: _504  and  _507
REMARK  215  A    between atoms: _507  and  _508
REMARK  216  A    between atoms: _508  and  _509
REMARK  217  A    between atoms: _512  and  _514
REMARK  218  A    between atoms: _514  and  _515
REMARK  219  A    between atoms: _514  and  _517
REMARK  220  A    between atoms: _517  and  _518
REMARK  221  A    between atoms: _521  and  _523
REMARK  222  A    between atoms: _523  and  _524
REMARK  223  A    between atoms: _523  and  _526
REMARK  224  A    between atoms: _526  and  _527
REMARK  225  A    between atoms: _529  and  _531
REMARK  226  A    between atoms: _531  and  _532
REMARK  227  A    between atoms: _531  and  _534
REMARK  228  A    between atoms: _534  and  _535
REMARK  229  A    between atoms: _538  and  _540
REMARK  230  A    between atoms: _540  and  _541
REMARK  231  A    between atoms: _540  and  _543
REMARK  232  A    between atoms: _543  and  _544
REMARK  233  A    between atoms: _544  and  _545
REMARK  234  A    between atoms: _547  and  _549
REMARK  235  A    between atoms: _549  and  _550
REMARK  236  A    between atoms: _553  and  _555
REMARK  237  A    between atoms: _555  and  _556
REMARK  238  A    between atoms: _559  and  _561
REMARK  239  A    between atoms: _561  and  _562
REMARK  240  A    between atoms: _561  and  _564
REMARK  241  A    between atoms: _564  and  _565
REMARK  242  A    between atoms: _568  and  _570
REMARK  243  A    between atoms: _570  and  _571
REMARK  244  A    between atoms: _574  and  _576
REMARK  245  A    between atoms: _576  and  _577
REMARK  246  A    between atoms: _580  and  _582
REMARK  247  A    between atoms: _582  and  _583
REMARK  248  A    between atoms: _585  and  _587
REMARK  249  A    between atoms: _587  and  _588
REMARK  250  A    between atoms: _587  and  _590
REMARK  251  A    between atoms: _590  and  _591
REMARK                            x       y       z     vdW  Elec       q    Type
REMARK                         _______ _______ _______ _____ _____    ______ ____
ROOT
ATOM      1  O   HOH     1      17.194  27.301  19.767  0.00  0.00    +0.000 OA
ENDROOT
TORSDOF 0
REMARK  Name = ../refined-set-2016/3cda/3cda_pocket.pdb
REMARK  251 active torsions:
REMARK  status: ('A' for Active; 'I' for Inactive)
REMARK    1  A    between atoms: _1  and  _3
REMARK    2  A    between atoms: _3  and  _4
REMARK    3  A    between atoms: _3  and  _6
REMARK    4  A    between atoms: _6  and  _7
REMARK    5  A    between atoms: _12  and  _13
REMARK    6  A    between atoms: _15  and  _17
REMARK    7  A    between atoms: _17  and  _18
REMARK    8  A    between atoms: _17  and  _20
REMARK    9  A    between atoms: _20  and  _21
REMARK   10  A    between atoms: _21  and  _22
REMARK   11  A    between atoms: _25  and  _27
REMARK   12  A    between atoms: _27  and  _28
REMARK   13  A    between atoms: _27  and  _30
REMARK   14  A    between atoms: _30  and  _31
REMARK   15  A    between atoms: _34  and  _36
REMARK   16  A    between atoms: _36  and  _37
REMARK   17  A    between atoms: _36  and  _39
REMARK   18  A    between atoms: _39  and  _40
REMARK   19  A    between atoms: _40  and  _41
REMARK   20  A    between atoms: _41  and  _42
REMARK   21  A    between atoms: _51  and  _53
REMARK   22  A    between atoms: _53  and  _54
REMARK   23  A    between atoms: _57  and  _58
REMARK   24  A    between atoms: _63  and  _65
REMARK   25  A    between atoms: _65  and  _66
REMARK   26  A    between atoms: _65  and  _68
REMARK   27  A    between atoms: _68  and  _69
REMARK   28  A    between atoms: _69  and  _70
REMARK   29  A    between atoms: _72  and  _74
REMARK   30  A    between atoms: _74  and  _75
REMARK   31  A    between atoms: _74  and  _77
REMARK   32  A    between atoms: _77  and  _78
REMARK   33  A    between atoms: _78  and  _79
REMARK   34  A    between atoms: _81  and  _83
REMARK   35  A    between atoms: _83  and  _84
REMARK   36  A    between atoms: _83  and  _86
REMARK   37  A    between atoms: _86  and  _87
REMARK   38  A    between atoms: _92  and  _94
REMARK   39  A    between atoms: _94  and  _95
REMARK   40  A    between atoms: _94  and  _97
REMARK   41  A    between atoms: _97  and  _98
REMARK   42  A    between atoms: _101  and  _103
REMARK   43  A    between atoms: _103  and  _104
REMARK   44  A    between atoms: _103  and  _106
REMARK   45  A    between atoms: _106  and  _107
REMARK   46  A    between atoms: _109  and  _111
REMARK   47  A    between atoms: _111  and  _112
REMARK   48  A    between atoms: _111  and  _114
REMARK   49  A    between atoms: _114  and  _115
REMARK   50  A    between atoms: _115  and  _116
REMARK   51  A    between atoms: _116  and  _117
REMARK   52  A    between atoms: _117  and  _118
REMARK   53  A    between atoms: _122  and  _124
REMARK   54  A    between atoms: _124  and  _125
REMARK   55  A    between atoms: _124  and  _127
REMARK   56  A    between atoms: _127  and  _128
REMARK   57  A    between atoms: _131  and  _133
REMARK   58  A    between atoms: _133  and  _134
REMARK   59  A    between atoms: _133  and  _136
REMARK   60  A    between atoms: _136  and  _137
REMARK   61  A    between atoms: _137  and  _138
REMARK   62  A    between atoms: _141  and  _143
REMARK   63  A    between atoms: _143  and  _144
REMARK   64  A    between atoms: _147  and  _149
REMARK   65  A    between atoms: _149  and  _150
REMARK   66  A    between atoms: _149  and  _152
REMARK   67  A    between atoms: _155  and  _157
REMARK   68  A    between atoms: _157  and  _158
REMARK   69  A    between atoms: _157  and  _160
REMARK   70  A    between atoms: _160  and  _161
REMARK   71  A    between atoms: _163  and  _165
REMARK   72  A    between atoms: _165  and  _166
REMARK   73  A    between atoms: _168  and  _170
REMARK   74  A    between atoms: _170  and  _171
REMARK   75  A    between atoms: _170  and  _173
REMARK   76  A    between atoms: _173  and  _174
REMARK   77  A    between atoms: _179  and  _181
REMARK   78  A    between atoms: _181  and  _182
REMARK   79  A    between atoms: _181  and  _184
REMARK   80  A    between atoms: _184  and  _185
REMARK   81  A    between atoms: _190  and  _191
REMARK   82  A    between atoms: _193  and  _195
REMARK   83  A    between atoms: _195  and  _196
REMARK   84  A    between atoms: _195  and  _198
REMARK   85  A    between atoms: _200  and  _202
REMARK   86  A    between atoms: _202  and  _203
REMARK   87  A    between atoms: _202  and  _205
REMARK   88  A    between atoms: _205  and  _206
REMARK   89  A    between atoms: _209  and  _211
REMARK   90  A    between atoms: _211  and  _212
REMARK   91  A    between atoms: _211  and  _214
REMARK   92  A    between atoms: _214  and  _215
REMARK   93  A    between atoms: _218  and  _220
REMARK   94  A    between atoms: _220  and  _221
REMARK   95  A    between atoms: _220  and  _223
REMARK   96  A    between atoms: _223  and  _224
REMARK   97  A    between atoms: _224  and  _225
REMARK   98  A    between atoms: _225  and  _226
REMARK   99  A    between atoms: _226  and  _227
REMARK  100  A    between atoms: _231  and  _233
REMARK  101  A    between atoms: _233  and  _234
REMARK  102  A    between atoms: _233  and  _236
REMARK  103  A    between atoms: _236  and  _237
REMARK  104  A    between atoms: _237  and  _238
REMARK  105  A    between atoms: _238  and  _239
REMARK  106  A    between atoms: _239  and  _240
REMARK  107  A    between atoms: _244  and  _246
REMARK  108  A    between atoms: _246  and  _247
REMARK  109  A    between atoms: _246  and  _249
REMARK  110  A    between atoms: _249  and  _250
REMARK  111  A    between atoms: _250  and  _251
REMARK  112  A    between atoms: _251  and  _252
REMARK  113  A    between atoms: _261  and  _263
REMARK  114  A    between atoms: _263  and  _264
REMARK  115  A    between atoms: _263  and  _266
REMARK  116  A    between atoms: _266  and  _267
REMARK  117  A    between atoms: _270  and  _272
REMARK  118  A    between atoms: _272  and  _273
REMARK  119  A    between atoms: _276  and  _278
REMARK  120  A    between atoms: _278  and  _279
REMARK  121  A    between atoms: _278  and  _281
REMARK  122  A    between atoms: _281  and  _282
REMARK  123  A    between atoms: _282  and  _283
REMARK  124  A    between atoms: _288  and  _290
REMARK  125  A    between atoms: _290  and  _291
REMARK  126  A    between atoms: _290  and  _293
REMARK  127  A    between atoms: _293  and  _294
REMARK  128  A    between atoms: _294  and  _295
REMARK  129  A    between atoms: _298  and  _300
REMARK  130  A    between atoms: _300  and  _301
REMARK  131  A    between atoms: _303  and  _305
REMARK  132  A    between atoms: _305  and  _306
REMARK  133  A    between atoms: _305  and  _308
REMARK  134  A    between atoms: _310  and  _312
REMARK  135  A    between atoms: _312  and  _313
REMARK  136  A    between atoms: _312  and  _315
REMARK  137  A    between atoms: _315  and  _316
REMARK  138  A    between atoms: _319  and  _321
REMARK  139  A    between atoms: _321  and  _322
REMARK  140  A    between atoms: _321  and  _324
REMARK  141  A    between atoms: _327  and  _329
REMARK  142  A    between atoms: _329  and  _330
REMARK  143  A    between atoms: _333  and  _335
REMARK  144  A    between atoms: _335  and  _336
REMARK  145  A    between atoms: _335  and  _338
REMARK  146  A    between atoms: _338  and  _339
REMARK  147  A    between atoms: _341  and  _343
REMARK  148  A    between atoms: _343  and  _344
REMARK  149  A    between atoms: _343  and  _346
REMARK  150  A    between atoms: _346  and  _347
REMARK  151  A    between atoms: _350  and  _352
REMARK  152  A    between atoms: _352  and  _353
REMARK  153  A    between atoms: _352  and  _355
REMARK  154  A    between atoms: _355  and  _356
REMARK  155  A    between atoms: _361  and  _363
REMARK  156  A    between atoms: _363  and  _364
REMARK  157  A    between atoms: _363  and  _366
REMARK  158  A    between atoms: _366  and  _367
REMARK  159  A    between atoms: _367  and  _368
REMARK  160  A    between atoms: _368  and  _369
REMARK  161  A    between atoms: _378  and  _380
REMARK  162  A    between atoms: _380  and  _381
REMARK  163  A    between atoms: _383  and  _385
REMARK  164  A    between atoms: _385  and  _386
REMARK  165  A    between atoms: _385  and  _388
REMARK  166  A    between atoms: _391  and  _393
REMARK  167  A    between atoms: _393  and  _394
REMARK  168  A    between atoms: _393  and  _396
REMARK  169  A    between atoms: _396  and  _397
REMARK  170  A    between atoms: _400  and  _402
REMARK  171  A    between atoms: _402  and  _403
REMARK  172  A    between atoms: _402  and  _405
REMARK  173  A    between atoms: _405  and  _406
REMARK  174  A    between atoms: _406  and  _407
REMARK  175  A    between atoms: _407  and  _408
REMARK  176  A    between atoms: _408  and  _409
REMARK  177  A    between atoms: _413  and  _415
REMARK  178  A    between atoms: _415  and  _416
REMARK  179  A    between atoms: _415  and  _418
REMARK  180  A    between atoms: _418  and  _419
REMARK  181  A    between atoms: _419  and  _420
REMARK  182  A    between atoms: _420  and  _421
REMARK  183  A    between atoms: _421  and  _422
REMARK  184  A    between atoms: _426  and  _428
REMARK  185  A    between atoms: _428  and  _429
REMARK  186  A    between atoms: _428  and  _431
REMARK  187  A    between atoms: _431  and  _432
REMARK  188  A    between atoms: _437  and  _439
REMARK  189  A    between atoms: _439  and  _440
REMARK  190  A    between atoms: _439  and  _442
REMARK  191  A    between atoms: _442  and  _443
REMARK  192  A    between atoms: _448  and  _450
REMARK  193  A    between atoms: _450  and  _451
REMARK  194  A    between atoms: _454  and  _456
REMARK  195  A    between atoms: _456  and  _457
REMARK  196  A    between atoms: _456  and  _459
REMARK  197  A    between atoms: _459  and  _460
REMARK  198  A    between atoms: _465  and  _467
REMARK  199  A    between atoms: _467  and  _468
REMARK  200  A    between atoms: _471  and  _473
REMARK  201  A    between atoms: _473  and  _474
REMARK  202  A    between atoms: _477  and  _479
REMARK  203  A    between atoms: _479  and  _480
REMARK  204  A    between atoms: _479  and  _482
REMARK  205  A    between atoms: _482  and  _483
REMARK  206  A    between atoms: _488  and  _490
REMARK  207  A    between atoms: _490  and  _491
REMARK  208  A    between atoms: _490  and  _493
REMARK  209  A    between atoms: _493  and  _494
REMARK  210  A    between atoms: _497  and  _499
REMARK  211  A    between atoms: _499  and  _500
REMARK  212  A    between atoms: _502  and  _504
REMARK  213  A    between atoms: _504  and  _505
REMARK  214  A    between atoms: _504  and  _507
REMARK  215  A    between atoms: _507  and  _508
REMARK  216  A    between atoms: _508  and  _509
REMARK  217  A    between atoms: _512  and  _514
REMARK  218  A    between atoms: _514  and  _515
REMARK  219  A    between atoms: _514  and  _517
REMARK  220  A    between atoms: _517  and  _518
REMARK  221  A    between atoms: _521  and  _523
REMARK  222  A    between atoms: _523  and  _524
REMARK  223  A    between atoms: _523  and  _526
REMARK  224  A    between atoms: _526  and  _527
REMARK  225  A    between atoms: _529  and  _531
REMARK  226  A    between atoms: _531  and  _532
REMARK  227  A    between atoms: _531  and  _534
REMARK  228  A    between atoms: _534  and  _535
REMARK  229  A    between atoms: _538  and  _540
REMARK  230  A    between atoms: _540  and  _541
REMARK  231  A    between atoms: _540  and  _543
REMARK  232  A    between atoms: _543  and  _544
REMARK  233  A    between atoms: _544  and  _545
REMARK  234  A    between atoms: _547  and  _549
REMARK  235  A    between atoms: _549  and  _550
REMARK  236  A    between atoms: _553  and  _555
REMARK  237  A    between atoms: _555  and  _556
REMARK  238  A    between atoms: _559  and  _561
REMARK  239  A    between atoms: _561  and  _562
REMARK  240  A    between atoms: _561  and  _564
REMARK  241  A    between atoms: _564  and  _565
REMARK  242  A    between atoms: _568  and  _570
REMARK  243  A    between atoms: _570  and  _571
REMARK  244  A    between atoms: _574  and  _576
REMARK  245  A    between atoms: _576  and  _577
REMARK  246  A    between atoms: _580  and  _582
REMARK  247  A    between atoms: _582  and  _583
REMARK  248  A    between atoms: _585  and  _587
REMARK  249  A    between atoms: _587  and  _588
REMARK  250  A    between atoms: _587  and  _590
REMARK  251  A    between atoms: _590  and  _591
REMARK                            x       y       z     vdW  Elec       q    Type
REMARK                         _______ _______ _______ _____ _____    ______ ____
ROOT
ATOM      1  O   HOH     1      28.900  28.349   8.776  0.00  0.00    +0.000 OA
ENDROOT
TORSDOF 0
REMARK  Name = ../refined-set-2016/3cda/3cda_pocket.pdb
REMARK  251 active torsions:
REMARK  status: ('A' for Active; 'I' for Inactive)
REMARK    1  A    between atoms: _1  and  _3
REMARK    2  A    between atoms: _3  and  _4
REMARK    3  A    between atoms: _3  and  _6
REMARK    4  A    between atoms: _6  and  _7
REMARK    5  A    between atoms: _12  and  _13
REMARK    6  A    between atoms: _15  and  _17
REMARK    7  A    between atoms: _17  and  _18
REMARK    8  A    between atoms: _17  and  _20
REMARK    9  A    between atoms: _20  and  _21
REMARK   10  A    between atoms: _21  and  _22
REMARK   11  A    between atoms: _25  and  _27
REMARK   12  A    between atoms: _27  and  _28
REMARK   13  A    between atoms: _27  and  _30
REMARK   14  A    between atoms: _30  and  _31
REMARK   15  A    between atoms: _34  and  _36
REMARK   16  A    between atoms: _36  and  _37
REMARK   17  A    between atoms: _36  and  _39
REMARK   18  A    between atoms: _39  and  _40
REMARK   19  A    between atoms: _40  and  _41
REMARK   20  A    between atoms: _41  and  _42
REMARK   21  A    between atoms: _51  and  _53
REMARK   22  A    between atoms: _53  and  _54
REMARK   23  A    between atoms: _57  and  _58
REMARK   24  A    between atoms: _63  and  _65
REMARK   25  A    between atoms: _65  and  _66
REMARK   26  A    between atoms: _65  and  _68
REMARK   27  A    between atoms: _68  and  _69
REMARK   28  A    between atoms: _69  and  _70
REMARK   29  A    between atoms: _72  and  _74
REMARK   30  A    between atoms: _74  and  _75
REMARK   31  A    between atoms: _74  and  _77
REMARK   32  A    between atoms: _77  and  _78
REMARK   33  A    between atoms: _78  and  _79
REMARK   34  A    between atoms: _81  and  _83
REMARK   35  A    between atoms: _83  and  _84
REMARK   36  A    between atoms: _83  and  _86
REMARK   37  A    between atoms: _86  and  _87
REMARK   38  A    between atoms: _92  and  _94
REMARK   39  A    between atoms: _94  and  _95
REMARK   40  A    between atoms: _94  and  _97
REMARK   41  A    between atoms: _97  and  _98
REMARK   42  A    between atoms: _101  and  _103
REMARK   43  A    between atoms: _103  and  _104
REMARK   44  A    between atoms: _103  and  _106
REMARK   45  A    between atoms: _106  and  _107
REMARK   46  A    between atoms: _109  and  _111
REMARK   47  A    between atoms: _111  and  _112
REMARK   48  A    between atoms: _111  and  _114
REMARK   49  A    between atoms: _114  and  _115
REMARK   50  A    between atoms: _115  and  _116
REMARK   51  A    between atoms: _116  and  _117
REMARK   52  A    between atoms: _117  and  _118
REMARK   53  A    between atoms: _122  and  _124
REMARK   54  A    between atoms: _124  and  _125
REMARK   55  A    between atoms: _124  and  _127
REMARK   56  A    between atoms: _127  and  _128
REMARK   57  A    between atoms: _131  and  _133
REMARK   58  A    between atoms: _133  and  _134
REMARK   59  A    between atoms: _133  and  _136
REMARK   60  A    between atoms: _136  and  _137
REMARK   61  A    between atoms: _137  and  _138
REMARK   62  A    between atoms: _141  and  _143
REMARK   63  A    between atoms: _143  and  _144
REMARK   64  A    between atoms: _147  and  _149
REMARK   65  A    between atoms: _149  and  _150
REMARK   66  A    between atoms: _149  and  _152
REMARK   67  A    between atoms: _155  and  _157
REMARK   68  A    between atoms: _157  and  _158
REMARK   69  A    between atoms: _157  and  _160
REMARK   70  A    between atoms: _160  and  _161
REMARK   71  A    between atoms: _163  and  _165
REMARK   72  A    between atoms: _165  and  _166
REMARK   73  A    between atoms: _168  and  _170
REMARK   74  A    between atoms: _170  and  _171
REMARK   75  A    between atoms: _170  and  _173
REMARK   76  A    between atoms: _173  and  _174
REMARK   77  A    between atoms: _179  and  _181
REMARK   78  A    between atoms: _181  and  _182
REMARK   79  A    between atoms: _181  and  _184
REMARK   80  A    between atoms: _184  and  _185
REMARK   81  A    between atoms: _190  and  _191
REMARK   82  A    between atoms: _193  and  _195
REMARK   83  A    between atoms: _195  and  _196
REMARK   84  A    between atoms: _195  and  _198
REMARK   85  A    between atoms: _200  and  _202
REMARK   86  A    between atoms: _202  and  _203
REMARK   87  A    between atoms: _202  and  _205
REMARK   88  A    between atoms: _205  and  _206
REMARK   89  A    between atoms: _209  and  _211
REMARK   90  A    between atoms: _211  and  _212
REMARK   91  A    between atoms: _211  and  _214
REMARK   92  A    between atoms: _214  and  _215
REMARK   93  A    between atoms: _218  and  _220
REMARK   94  A    between atoms: _220  and  _221
REMARK   95  A    between atoms: _220  and  _223
REMARK   96  A    between atoms: _223  and  _224
REMARK   97  A    between atoms: _224  and  _225
REMARK   98  A    between atoms: _225  and  _226
REMARK   99  A    between atoms: _226  and  _227
REMARK  100  A    between atoms: _231  and  _233
REMARK  101  A    between atoms: _233  and  _234
REMARK  102  A    between atoms: _233  and  _236
REMARK  103  A    between atoms: _236  and  _237
REMARK  104  A    between atoms: _237  and  _238
REMARK  105  A    between atoms: _238  and  _239
REMARK  106  A    between atoms: _239  and  _240
REMARK  107  A    between atoms: _244  and  _246
REMARK  108  A    between atoms: _246  and  _247
REMARK  109  A    between atoms: _246  and  _249
REMARK  110  A    between atoms: _249  and  _250
REMARK  111  A    between atoms: _250  and  _251
REMARK  112  A    between atoms: _251  and  _252
REMARK  113  A    between atoms: _261  and  _263
REMARK  114  A    between atoms: _263  and  _264
REMARK  115  A    between atoms: _263  and  _266
REMARK  116  A    between atoms: _266  and  _267
REMARK  117  A    between atoms: _270  and  _272
REMARK  118  A    between atoms: _272  and  _273
REMARK  119  A    between atoms: _276  and  _278
REMARK  120  A    between atoms: _278  and  _279
REMARK  121  A    between atoms: _278  and  _281
REMARK  122  A    between atoms: _281  and  _282
REMARK  123  A    between atoms: _282  and  _283
REMARK  124  A    between atoms: _288  and  _290
REMARK  125  A    between atoms: _290  and  _291
REMARK  126  A    between atoms: _290  and  _293
REMARK  127  A    between atoms: _293  and  _294
REMARK  128  A    between atoms: _294  and  _295
REMARK  129  A    between atoms: _298  and  _300
REMARK  130  A    between atoms: _300  and  _301
REMARK  131  A    between atoms: _303  and  _305
REMARK  132  A    between atoms: _305  and  _306
REMARK  133  A    between atoms: _305  and  _308
REMARK  134  A    between atoms: _310  and  _312
REMARK  135  A    between atoms: _312  and  _313
REMARK  136  A    between atoms: _312  and  _315
REMARK  137  A    between atoms: _315  and  _316
REMARK  138  A    between atoms: _319  and  _321
REMARK  139  A    between atoms: _321  and  _322
REMARK  140  A    between atoms: _321  and  _324
REMARK  141  A    between atoms: _327  and  _329
REMARK  142  A    between atoms: _329  and  _330
REMARK  143  A    between atoms: _333  and  _335
REMARK  144  A    between atoms: _335  and  _336
REMARK  145  A    between atoms: _335  and  _338
REMARK  146  A    between atoms: _338  and  _339
REMARK  147  A    between atoms: _341  and  _343
REMARK  148  A    between atoms: _343  and  _344
REMARK  149  A    between atoms: _343  and  _346
REMARK  150  A    between atoms: _346  and  _347
REMARK  151  A    between atoms: _350  and  _352
REMARK  152  A    between atoms: _352  and  _353
REMARK  153  A    between atoms: _352  and  _355
REMARK  154  A    between atoms: _355  and  _356
REMARK  155  A    between atoms: _361  and  _363
REMARK  156  A    between atoms: _363  and  _364
REMARK  157  A    between atoms: _363  and  _366
REMARK  158  A    between atoms: _366  and  _367
REMARK  159  A    between atoms: _367  and  _368
REMARK  160  A    between atoms: _368  and  _369
REMARK  161  A    between atoms: _378  and  _380
REMARK  162  A    between atoms: _380  and  _381
REMARK  163  A    between atoms: _383  and  _385
REMARK  164  A    between atoms: _385  and  _386
REMARK  165  A    between atoms: _385  and  _388
REMARK  166  A    between atoms: _391  and  _393
REMARK  167  A    between atoms: _393  and  _394
REMARK  168  A    between atoms: _393  and  _396
REMARK  169  A    between atoms: _396  and  _397
REMARK  170  A    between atoms: _400  and  _402
REMARK  171  A    between atoms: _402  and  _403
REMARK  172  A    between atoms: _402  and  _405
REMARK  173  A    between atoms: _405  and  _406
REMARK  174  A    between atoms: _406  and  _407
REMARK  175  A    between atoms: _407  and  _408
REMARK  176  A    between atoms: _408  and  _409
REMARK  177  A    between atoms: _413  and  _415
REMARK  178  A    between atoms: _415  and  _416
REMARK  179  A    between atoms: _415  and  _418
REMARK  180  A    between atoms: _418  and  _419
REMARK  181  A    between atoms: _419  and  _420
REMARK  182  A    between atoms: _420  and  _421
REMARK  183  A    between atoms: _421  and  _422
REMARK  184  A    between atoms: _426  and  _428
REMARK  185  A    between atoms: _428  and  _429
REMARK  186  A    between atoms: _428  and  _431
REMARK  187  A    between atoms: _431  and  _432
REMARK  188  A    between atoms: _437  and  _439
REMARK  189  A    between atoms: _439  and  _440
REMARK  190  A    between atoms: _439  and  _442
REMARK  191  A    between atoms: _442  and  _443
REMARK  192  A    between atoms: _448  and  _450
REMARK  193  A    between atoms: _450  and  _451
REMARK  194  A    between atoms: _454  and  _456
REMARK  195  A    between atoms: _456  and  _457
REMARK  196  A    between atoms: _456  and  _459
REMARK  197  A    between atoms: _459  and  _460
REMARK  198  A    between atoms: _465  and  _467
REMARK  199  A    between atoms: _467  and  _468
REMARK  200  A    between atoms: _471  and  _473
REMARK  201  A    between atoms: _473  and  _474
REMARK  202  A    between atoms: _477  and  _479
REMARK  203  A    between atoms: _479  and  _480
REMARK  204  A    between atoms: _479  and  _482
REMARK  205  A    between atoms: _482  and  _483
REMARK  206  A    between atoms: _488  and  _490
REMARK  207  A    between atoms: _490  and  _491
REMARK  208  A    between atoms: _490  and  _493
REMARK  209  A    between atoms: _493  and  _494
REMARK  210  A    between atoms: _497  and  _499
REMARK  211  A    between atoms: _499  and  _500
REMARK  212  A    between atoms: _502  and  _504
REMARK  213  A    between atoms: _504  and  _505
REMARK  214  A    between atoms: _504  and  _507
REMARK  215  A    between atoms: _507  and  _508
REMARK  216  A    between atoms: _508  and  _509
REMARK  217  A    between atoms: _512  and  _514
REMARK  218  A    between atoms: _514  and  _515
REMARK  219  A    between atoms: _514  and  _517
REMARK  220  A    between atoms: _517  and  _518
REMARK  221  A    between atoms: _521  and  _523
REMARK  222  A    between atoms: _523  and  _524
REMARK  223  A    between atoms: _523  and  _526
REMARK  224  A    between atoms: _526  and  _527
REMARK  225  A    between atoms: _529  and  _531
REMARK  226  A    between atoms: _531  and  _532
REMARK  227  A    between atoms: _531  and  _534
REMARK  228  A    between atoms: _534  and  _535
REMARK  229  A    between atoms: _538  and  _540
REMARK  230  A    between atoms: _540  and  _541
REMARK  231  A    between atoms: _540  and  _543
REMARK  232  A    between atoms: _543  and  _544
REMARK  233  A    between atoms: _544  and  _545
REMARK  234  A    between atoms: _547  and  _549
REMARK  235  A    between atoms: _549  and  _550
REMARK  236  A    between atoms: _553  and  _555
REMARK  237  A    between atoms: _555  and  _556
REMARK  238  A    between atoms: _559  and  _561
REMARK  239  A    between atoms: _561  and  _562
REMARK  240  A    between atoms: _561  and  _564
REMARK  241  A    between atoms: _564  and  _565
REMARK  242  A    between atoms: _568  and  _570
REMARK  243  A    between atoms: _570  and  _571
REMARK  244  A    between atoms: _574  and  _576
REMARK  245  A    between atoms: _576  and  _577
REMARK  246  A    between atoms: _580  and  _582
REMARK  247  A    between atoms: _582  and  _583
REMARK  248  A    between atoms: _585  and  _587
REMARK  249  A    between atoms: _587  and  _588
REMARK  250  A    between atoms: _587  and  _590
REMARK  251  A    between atoms: _590  and  _591
REMARK                            x       y       z     vdW  Elec       q    Type
REMARK                         _______ _______ _______ _____ _____    ______ ____
ROOT
ATOM      1  O   HOH     1      12.413  23.820  10.658  0.00  0.00    +0.000 OA
ENDROOT
TORSDOF 0
