REMARK  Name = ../refined-set-2016/1t7j/1t7j_pocket.pdb
REMARK  214 active torsions:
REMARK  status: ('A' for Active; 'I' for Inactive)
REMARK    1  A    between atoms: _1  and  _3
REMARK    2  A    between atoms: _3  and  _4
REMARK    3  A    between atoms: _3  and  _6
REMARK    4  A    between atoms: _6  and  _7
REMARK    5  A    between atoms: _7  and  _8
REMARK    6  A    between atoms: _8  and  _9
REMARK    7  A    between atoms: _18  and  _20
REMARK    8  A    between atoms: _20  and  _21
REMARK    9  A    between atoms: _20  and  _23
REMARK   10  A    between atoms: _23  and  _24
REMARK   11  A    between atoms: _27  and  _29
REMARK   12  A    between atoms: _29  and  _30
REMARK   13  A    between atoms: _29  and  _32
REMARK   14  A    between atoms: _32  and  _33
REMARK   15  A    between atoms: _36  and  _38
REMARK   16  A    between atoms: _38  and  _39
REMARK   17  A    between atoms: _38  and  _41
REMARK   18  A    between atoms: _41  and  _42
REMARK   19  A    between atoms: _45  and  _47
REMARK   20  A    between atoms: _47  and  _48
REMARK   21  A    between atoms: _47  and  _50
REMARK   22  A    between atoms: _50  and  _51
REMARK   23  A    between atoms: _54  and  _56
REMARK   24  A    between atoms: _56  and  _57
REMARK   25  A    between atoms: _59  and  _61
REMARK   26  A    between atoms: _61  and  _62
REMARK   27  A    between atoms: _65  and  _67
REMARK   28  A    between atoms: _67  and  _68
REMARK   29  A    between atoms: _67  and  _70
REMARK   30  A    between atoms: _70  and  _71
REMARK   31  A    between atoms: _74  and  _76
REMARK   32  A    between atoms: _76  and  _77
REMARK   33  A    between atoms: _76  and  _79
REMARK   34  A    between atoms: _79  and  _80
REMARK   35  A    between atoms: _83  and  _85
REMARK   36  A    between atoms: _85  and  _86
REMARK   37  A    between atoms: _85  and  _88
REMARK   38  A    between atoms: _88  and  _89
REMARK   39  A    between atoms: _92  and  _94
REMARK   40  A    between atoms: _94  and  _95
REMARK   41  A    between atoms: _94  and  _97
REMARK   42  A    between atoms: _100  and  _102
REMARK   43  A    between atoms: _102  and  _103
REMARK   44  A    between atoms: _102  and  _105
REMARK   45  A    between atoms: _105  and  _106
REMARK   46  A    between atoms: _109  and  _111
REMARK   47  A    between atoms: _111  and  _112
REMARK   48  A    between atoms: _114  and  _116
REMARK   49  A    between atoms: _116  and  _117
REMARK   50  A    between atoms: _119  and  _121
REMARK   51  A    between atoms: _121  and  _122
REMARK   52  A    between atoms: _121  and  _124
REMARK   53  A    between atoms: _124  and  _125
REMARK   54  A    between atoms: _128  and  _130
REMARK   55  A    between atoms: _130  and  _131
REMARK   56  A    between atoms: _133  and  _135
REMARK   57  A    between atoms: _135  and  _136
REMARK   58  A    between atoms: _138  and  _140
REMARK   59  A    between atoms: _140  and  _141
REMARK   60  A    between atoms: _140  and  _143
REMARK   61  A    between atoms: _143  and  _144
REMARK   62  A    between atoms: _147  and  _149
REMARK   63  A    between atoms: _149  and  _150
REMARK   64  A    between atoms: _149  and  _152
REMARK   65  A    between atoms: _152  and  _153
REMARK   66  A    between atoms: _156  and  _158
REMARK   67  A    between atoms: _158  and  _159
REMARK   68  A    between atoms: _158  and  _161
REMARK   69  A    between atoms: _161  and  _162
REMARK   70  A    between atoms: _166  and  _167
REMARK   71  A    between atoms: _172  and  _174
REMARK   72  A    between atoms: _174  and  _175
REMARK   73  A    between atoms: _174  and  _177
REMARK   74  A    between atoms: _177  and  _178
REMARK   75  A    between atoms: _181  and  _183
REMARK   76  A    between atoms: _183  and  _184
REMARK   77  A    between atoms: _183  and  _186
REMARK   78  A    between atoms: _186  and  _187
REMARK   79  A    between atoms: _192  and  _194
REMARK   80  A    between atoms: _194  and  _195
REMARK   81  A    between atoms: _194  and  _197
REMARK   82  A    between atoms: _200  and  _202
REMARK   83  A    between atoms: _202  and  _203
REMARK   84  A    between atoms: _202  and  _205
REMARK   85  A    between atoms: _205  and  _206
REMARK   86  A    between atoms: _209  and  _211
REMARK   87  A    between atoms: _211  and  _212
REMARK   88  A    between atoms: _214  and  _216
REMARK   89  A    between atoms: _216  and  _217
REMARK   90  A    between atoms: _216  and  _219
REMARK   91  A    between atoms: _219  and  _220
REMARK   92  A    between atoms: _220  and  _221
REMARK   93  A    between atoms: _221  and  _222
REMARK   94  A    between atoms: _231  and  _233
REMARK   95  A    between atoms: _233  and  _234
REMARK   96  A    between atoms: _233  and  _236
REMARK   97  A    between atoms: _236  and  _237
REMARK   98  A    between atoms: _242  and  _244
REMARK   99  A    between atoms: _244  and  _245
REMARK  100  A    between atoms: _244  and  _247
REMARK  101  A    between atoms: _247  and  _248
REMARK  102  A    between atoms: _248  and  _249
REMARK  103  A    between atoms: _249  and  _250
REMARK  104  A    between atoms: _259  and  _261
REMARK  105  A    between atoms: _261  and  _262
REMARK  106  A    between atoms: _261  and  _264
REMARK  107  A    between atoms: _264  and  _265
REMARK  108  A    between atoms: _268  and  _270
REMARK  109  A    between atoms: _270  and  _271
REMARK  110  A    between atoms: _270  and  _273
REMARK  111  A    between atoms: _273  and  _274
REMARK  112  A    between atoms: _277  and  _279
REMARK  113  A    between atoms: _279  and  _280
REMARK  114  A    between atoms: _279  and  _282
REMARK  115  A    between atoms: _282  and  _283
REMARK  116  A    between atoms: _286  and  _288
REMARK  117  A    between atoms: _288  and  _289
REMARK  118  A    between atoms: _288  and  _291
REMARK  119  A    between atoms: _291  and  _292
REMARK  120  A    between atoms: _295  and  _297
REMARK  121  A    between atoms: _297  and  _298
REMARK  122  A    between atoms: _300  and  _302
REMARK  123  A    between atoms: _302  and  _303
REMARK  124  A    between atoms: _306  and  _308
REMARK  125  A    between atoms: _308  and  _309
REMARK  126  A    between atoms: _308  and  _311
REMARK  127  A    between atoms: _311  and  _312
REMARK  128  A    between atoms: _315  and  _317
REMARK  129  A    between atoms: _317  and  _318
REMARK  130  A    between atoms: _317  and  _320
REMARK  131  A    between atoms: _320  and  _321
REMARK  132  A    between atoms: _324  and  _326
REMARK  133  A    between atoms: _326  and  _327
REMARK  134  A    between atoms: _326  and  _329
REMARK  135  A    between atoms: _329  and  _330
REMARK  136  A    between atoms: _333  and  _335
REMARK  137  A    between atoms: _335  and  _336
REMARK  138  A    between atoms: _335  and  _338
REMARK  139  A    between atoms: _341  and  _343
REMARK  140  A    between atoms: _343  and  _344
REMARK  141  A    between atoms: _343  and  _346
REMARK  142  A    between atoms: _346  and  _347
REMARK  143  A    between atoms: _350  and  _352
REMARK  144  A    between atoms: _352  and  _353
REMARK  145  A    between atoms: _352  and  _355
REMARK  146  A    between atoms: _355  and  _356
REMARK  147  A    between atoms: _356  and  _357
REMARK  148  A    between atoms: _357  and  _358
REMARK  149  A    between atoms: _358  and  _359
REMARK  150  A    between atoms: _363  and  _365
REMARK  151  A    between atoms: _365  and  _366
REMARK  152  A    between atoms: _365  and  _368
REMARK  153  A    between atoms: _368  and  _369
REMARK  154  A    between atoms: _369  and  _370
REMARK  155  A    between atoms: _372  and  _374
REMARK  156  A    between atoms: _374  and  _375
REMARK  157  A    between atoms: _374  and  _377
REMARK  158  A    between atoms: _377  and  _378
REMARK  159  A    between atoms: _381  and  _383
REMARK  160  A    between atoms: _383  and  _384
REMARK  161  A    between atoms: _386  and  _388
REMARK  162  A    between atoms: _388  and  _389
REMARK  163  A    between atoms: _391  and  _393
REMARK  164  A    between atoms: _393  and  _394
REMARK  165  A    between atoms: _393  and  _396
REMARK  166  A    between atoms: _396  and  _397
REMARK  167  A    between atoms: _400  and  _402
REMARK  168  A    between atoms: _402  and  _403
REMARK  169  A    between atoms: _405  and  _407
REMARK  170  A    between atoms: _407  and  _408
REMARK  171  A    between atoms: _410  and  _412
REMARK  172  A    between atoms: _412  and  _413
REMARK  173  A    between atoms: _412  and  _415
REMARK  174  A    between atoms: _415  and  _416
REMARK  175  A    between atoms: _419  and  _421
REMARK  176  A    between atoms: _421  and  _422
REMARK  177  A    between atoms: _421  and  _424
REMARK  178  A    between atoms: _427  and  _429
REMARK  179  A    between atoms: _429  and  _430
REMARK  180  A    between atoms: _429  and  _432
REMARK  181  A    between atoms: _432  and  _433
REMARK  182  A    between atoms: _437  and  _438
REMARK  183  A    between atoms: _443  and  _445
REMARK  184  A    between atoms: _445  and  _446
REMARK  185  A    between atoms: _445  and  _448
REMARK  186  A    between atoms: _448  and  _449
REMARK  187  A    between atoms: _453  and  _454
REMARK  188  A    between atoms: _459  and  _461
REMARK  189  A    between atoms: _461  and  _462
REMARK  190  A    between atoms: _461  and  _464
REMARK  191  A    between atoms: _464  and  _465
REMARK  192  A    between atoms: _468  and  _470
REMARK  193  A    between atoms: _470  and  _471
REMARK  194  A    between atoms: _470  and  _473
REMARK  195  A    between atoms: _473  and  _474
REMARK  196  A    between atoms: _479  and  _481
REMARK  197  A    between atoms: _481  and  _482
REMARK  198  A    between atoms: _481  and  _484
REMARK  199  A    between atoms: _487  and  _489
REMARK  200  A    between atoms: _489  and  _490
REMARK  201  A    between atoms: _489  and  _492
REMARK  202  A    between atoms: _492  and  _493
REMARK  203  A    between atoms: _496  and  _498
REMARK  204  A    between atoms: _498  and  _499
REMARK  205  A    between atoms: _501  and  _503
REMARK  206  A    between atoms: _503  and  _504
REMARK  207  A    between atoms: _503  and  _506
REMARK  208  A    between atoms: _506  and  _507
REMARK  209  A    between atoms: _507  and  _508
REMARK  210  A    between atoms: _508  and  _509
REMARK  211  A    between atoms: _518  and  _520
REMARK  212  A    between atoms: _520  and  _521
REMARK  213  A    between atoms: _520  and  _523
REMARK  214  A    between atoms: _523  and  _524
REMARK                            x       y       z     vdW  Elec       q    Type
REMARK                         _______ _______ _______ _____ _____    ______ ____
ROOT
ATOM      1  NE  ARG A   1       4.347  -8.001  23.831  0.00  0.00    -0.265 N 
ATOM      2  HE  ARG A   1       5.221  -7.500  23.573  0.00  0.00    +0.259 HD
ATOM      3  CZ  ARG A   1       4.198  -9.251  23.406  0.00  0.00    +0.342 C 
ATOM      4  NH2 ARG A   1       3.098  -9.931  23.716  0.00  0.00    -0.292 N 
ATOM      5 HH21 ARG A   1       2.355  -9.484  24.291  0.00  0.00    +0.255 HD
ATOM      6 HH22 ARG A   1       2.981 -10.909  23.384  0.00  0.00    +0.255 HD
ATOM      7  NH1 ARG A   1       5.149  -9.817  22.672  0.00  0.00    -0.292 N 
ATOM      8 HH11 ARG A   1       6.008  -9.282  22.431  0.00  0.00    +0.255 HD
ATOM      9 HH12 ARG A   1       5.035 -10.795  22.338  0.00  0.00    +0.255 HD
ENDROOT
BRANCH   1  10
ATOM     10  CD  ARG A   1       3.364  -7.288  24.636  0.00  0.00    +0.174 C 
BRANCH  10  11
ATOM     11  CG  ARG A   1       3.971  -6.061  25.243  0.00  0.00    +0.045 C 
BRANCH  11  12
ATOM     12  CB  ARG A   1       2.991  -5.379  26.132  0.00  0.00    +0.029 C 
BRANCH  12  13
ATOM     13  CA  ARG A   1       3.626  -4.344  27.047  0.00  0.00    +0.133 C 
BRANCH  13  14
ATOM     14  N   ARG A   1       4.286  -4.981  28.175  0.00  0.00    -0.239 NA
ATOM     15  H   ARG A   1       4.297  -6.018  28.251  0.00  0.00    +0.142 HD
ENDBRANCH  13  14
BRANCH  13  16
ATOM     16  C   ARG A   1       2.543  -3.426  27.573  0.00  0.00    +0.224 C 
ATOM     17  O   ARG A   1       1.723  -3.825  28.399  0.00  0.00    -0.287 OA
ENDBRANCH  13  16
ENDBRANCH  12  13
ENDBRANCH  11  12
ENDBRANCH  10  11
ENDBRANCH   1  10
TORSDOF 6
REMARK  Name = ../refined-set-2016/1t7j/1t7j_pocket.pdb
REMARK  214 active torsions:
REMARK  status: ('A' for Active; 'I' for Inactive)
REMARK    1  A    between atoms: _1  and  _3
REMARK    2  A    between atoms: _3  and  _4
REMARK    3  A    between atoms: _3  and  _6
REMARK    4  A    between atoms: _6  and  _7
REMARK    5  A    between atoms: _7  and  _8
REMARK    6  A    between atoms: _8  and  _9
REMARK    7  A    between atoms: _18  and  _20
REMARK    8  A    between atoms: _20  and  _21
REMARK    9  A    between atoms: _20  and  _23
REMARK   10  A    between atoms: _23  and  _24
REMARK   11  A    between atoms: _27  and  _29
REMARK   12  A    between atoms: _29  and  _30
REMARK   13  A    between atoms: _29  and  _32
REMARK   14  A    between atoms: _32  and  _33
REMARK   15  A    between atoms: _36  and  _38
REMARK   16  A    between atoms: _38  and  _39
REMARK   17  A    between atoms: _38  and  _41
REMARK   18  A    between atoms: _41  and  _42
REMARK   19  A    between atoms: _45  and  _47
REMARK   20  A    between atoms: _47  and  _48
REMARK   21  A    between atoms: _47  and  _50
REMARK   22  A    between atoms: _50  and  _51
REMARK   23  A    between atoms: _54  and  _56
REMARK   24  A    between atoms: _56  and  _57
REMARK   25  A    between atoms: _59  and  _61
REMARK   26  A    between atoms: _61  and  _62
REMARK   27  A    between atoms: _65  and  _67
REMARK   28  A    between atoms: _67  and  _68
REMARK   29  A    between atoms: _67  and  _70
REMARK   30  A    between atoms: _70  and  _71
REMARK   31  A    between atoms: _74  and  _76
REMARK   32  A    between atoms: _76  and  _77
REMARK   33  A    between atoms: _76  and  _79
REMARK   34  A    between atoms: _79  and  _80
REMARK   35  A    between atoms: _83  and  _85
REMARK   36  A    between atoms: _85  and  _86
REMARK   37  A    between atoms: _85  and  _88
REMARK   38  A    between atoms: _88  and  _89
REMARK   39  A    between atoms: _92  and  _94
REMARK   40  A    between atoms: _94  and  _95
REMARK   41  A    between atoms: _94  and  _97
REMARK   42  A    between atoms: _100  and  _102
REMARK   43  A    between atoms: _102  and  _103
REMARK   44  A    between atoms: _102  and  _105
REMARK   45  A    between atoms: _105  and  _106
REMARK   46  A    between atoms: _109  and  _111
REMARK   47  A    between atoms: _111  and  _112
REMARK   48  A    between atoms: _114  and  _116
REMARK   49  A    between atoms: _116  and  _117
REMARK   50  A    between atoms: _119  and  _121
REMARK   51  A    between atoms: _121  and  _122
REMARK   52  A    between atoms: _121  and  _124
REMARK   53  A    between atoms: _124  and  _125
REMARK   54  A    between atoms: _128  and  _130
REMARK   55  A    between atoms: _130  and  _131
REMARK   56  A    between atoms: _133  and  _135
REMARK   57  A    between atoms: _135  and  _136
REMARK   58  A    between atoms: _138  and  _140
REMARK   59  A    between atoms: _140  and  _141
REMARK   60  A    between atoms: _140  and  _143
REMARK   61  A    between atoms: _143  and  _144
REMARK   62  A    between atoms: _147  and  _149
REMARK   63  A    between atoms: _149  and  _150
REMARK   64  A    between atoms: _149  and  _152
REMARK   65  A    between atoms: _152  and  _153
REMARK   66  A    between atoms: _156  and  _158
REMARK   67  A    between atoms: _158  and  _159
REMARK   68  A    between atoms: _158  and  _161
REMARK   69  A    between atoms: _161  and  _162
REMARK   70  A    between atoms: _166  and  _167
REMARK   71  A    between atoms: _172  and  _174
REMARK   72  A    between atoms: _174  and  _175
REMARK   73  A    between atoms: _174  and  _177
REMARK   74  A    between atoms: _177  and  _178
REMARK   75  A    between atoms: _181  and  _183
REMARK   76  A    between atoms: _183  and  _184
REMARK   77  A    between atoms: _183  and  _186
REMARK   78  A    between atoms: _186  and  _187
REMARK   79  A    between atoms: _192  and  _194
REMARK   80  A    between atoms: _194  and  _195
REMARK   81  A    between atoms: _194  and  _197
REMARK   82  A    between atoms: _200  and  _202
REMARK   83  A    between atoms: _202  and  _203
REMARK   84  A    between atoms: _202  and  _205
REMARK   85  A    between atoms: _205  and  _206
REMARK   86  A    between atoms: _209  and  _211
REMARK   87  A    between atoms: _211  and  _212
REMARK   88  A    between atoms: _214  and  _216
REMARK   89  A    between atoms: _216  and  _217
REMARK   90  A    between atoms: _216  and  _219
REMARK   91  A    between atoms: _219  and  _220
REMARK   92  A    between atoms: _220  and  _221
REMARK   93  A    between atoms: _221  and  _222
REMARK   94  A    between atoms: _231  and  _233
REMARK   95  A    between atoms: _233  and  _234
REMARK   96  A    between atoms: _233  and  _236
REMARK   97  A    between atoms: _236  and  _237
REMARK   98  A    between atoms: _242  and  _244
REMARK   99  A    between atoms: _244  and  _245
REMARK  100  A    between atoms: _244  and  _247
REMARK  101  A    between atoms: _247  and  _248
REMARK  102  A    between atoms: _248  and  _249
REMARK  103  A    between atoms: _249  and  _250
REMARK  104  A    between atoms: _259  and  _261
REMARK  105  A    between atoms: _261  and  _262
REMARK  106  A    between atoms: _261  and  _264
REMARK  107  A    between atoms: _264  and  _265
REMARK  108  A    between atoms: _268  and  _270
REMARK  109  A    between atoms: _270  and  _271
REMARK  110  A    between atoms: _270  and  _273
REMARK  111  A    between atoms: _273  and  _274
REMARK  112  A    between atoms: _277  and  _279
REMARK  113  A    between atoms: _279  and  _280
REMARK  114  A    between atoms: _279  and  _282
REMARK  115  A    between atoms: _282  and  _283
REMARK  116  A    between atoms: _286  and  _288
REMARK  117  A    between atoms: _288  and  _289
REMARK  118  A    between atoms: _288  and  _291
REMARK  119  A    between atoms: _291  and  _292
REMARK  120  A    between atoms: _295  and  _297
REMARK  121  A    between atoms: _297  and  _298
REMARK  122  A    between atoms: _300  and  _302
REMARK  123  A    between atoms: _302  and  _303
REMARK  124  A    between atoms: _306  and  _308
REMARK  125  A    between atoms: _308  and  _309
REMARK  126  A    between atoms: _308  and  _311
REMARK  127  A    between atoms: _311  and  _312
REMARK  128  A    between atoms: _315  and  _317
REMARK  129  A    between atoms: _317  and  _318
REMARK  130  A    between atoms: _317  and  _320
REMARK  131  A    between atoms: _320  and  _321
REMARK  132  A    between atoms: _324  and  _326
REMARK  133  A    between atoms: _326  and  _327
REMARK  134  A    between atoms: _326  and  _329
REMARK  135  A    between atoms: _329  and  _330
REMARK  136  A    between atoms: _333  and  _335
REMARK  137  A    between atoms: _335  and  _336
REMARK  138  A    between atoms: _335  and  _338
REMARK  139  A    between atoms: _341  and  _343
REMARK  140  A    between atoms: _343  and  _344
REMARK  141  A    between atoms: _343  and  _346
REMARK  142  A    between atoms: _346  and  _347
REMARK  143  A    between atoms: _350  and  _352
REMARK  144  A    between atoms: _352  and  _353
REMARK  145  A    between atoms: _352  and  _355
REMARK  146  A    between atoms: _355  and  _356
REMARK  147  A    between atoms: _356  and  _357
REMARK  148  A    between atoms: _357  and  _358
REMARK  149  A    between atoms: _358  and  _359
REMARK  150  A    between atoms: _363  and  _365
REMARK  151  A    between atoms: _365  and  _366
REMARK  152  A    between atoms: _365  and  _368
REMARK  153  A    between atoms: _368  and  _369
REMARK  154  A    between atoms: _369  and  _370
REMARK  155  A    between atoms: _372  and  _374
REMARK  156  A    between atoms: _374  and  _375
REMARK  157  A    between atoms: _374  and  _377
REMARK  158  A    between atoms: _377  and  _378
REMARK  159  A    between atoms: _381  and  _383
REMARK  160  A    between atoms: _383  and  _384
REMARK  161  A    between atoms: _386  and  _388
REMARK  162  A    between atoms: _388  and  _389
REMARK  163  A    between atoms: _391  and  _393
REMARK  164  A    between atoms: _393  and  _394
REMARK  165  A    between atoms: _393  and  _396
REMARK  166  A    between atoms: _396  and  _397
REMARK  167  A    between atoms: _400  and  _402
REMARK  168  A    between atoms: _402  and  _403
REMARK  169  A    between atoms: _405  and  _407
REMARK  170  A    between atoms: _407  and  _408
REMARK  171  A    between atoms: _410  and  _412
REMARK  172  A    between atoms: _412  and  _413
REMARK  173  A    between atoms: _412  and  _415
REMARK  174  A    between atoms: _415  and  _416
REMARK  175  A    between atoms: _419  and  _421
REMARK  176  A    between atoms: _421  and  _422
REMARK  177  A    between atoms: _421  and  _424
REMARK  178  A    between atoms: _427  and  _429
REMARK  179  A    between atoms: _429  and  _430
REMARK  180  A    between atoms: _429  and  _432
REMARK  181  A    between atoms: _432  and  _433
REMARK  182  A    between atoms: _437  and  _438
REMARK  183  A    between atoms: _443  and  _445
REMARK  184  A    between atoms: _445  and  _446
REMARK  185  A    between atoms: _445  and  _448
REMARK  186  A    between atoms: _448  and  _449
REMARK  187  A    between atoms: _453  and  _454
REMARK  188  A    between atoms: _459  and  _461
REMARK  189  A    between atoms: _461  and  _462
REMARK  190  A    between atoms: _461  and  _464
REMARK  191  A    between atoms: _464  and  _465
REMARK  192  A    between atoms: _468  and  _470
REMARK  193  A    between atoms: _470  and  _471
REMARK  194  A    between atoms: _470  and  _473
REMARK  195  A    between atoms: _473  and  _474
REMARK  196  A    between atoms: _479  and  _481
REMARK  197  A    between atoms: _481  and  _482
REMARK  198  A    between atoms: _481  and  _484
REMARK  199  A    between atoms: _487  and  _489
REMARK  200  A    between atoms: _489  and  _490
REMARK  201  A    between atoms: _489  and  _492
REMARK  202  A    between atoms: _492  and  _493
REMARK  203  A    between atoms: _496  and  _498
REMARK  204  A    between atoms: _498  and  _499
REMARK  205  A    between atoms: _501  and  _503
REMARK  206  A    between atoms: _503  and  _504
REMARK  207  A    between atoms: _503  and  _506
REMARK  208  A    between atoms: _506  and  _507
REMARK  209  A    between atoms: _507  and  _508
REMARK  210  A    between atoms: _508  and  _509
REMARK  211  A    between atoms: _518  and  _520
REMARK  212  A    between atoms: _520  and  _521
REMARK  213  A    between atoms: _520  and  _523
REMARK  214  A    between atoms: _523  and  _524
REMARK                            x       y       z     vdW  Elec       q    Type
REMARK                         _______ _______ _______ _____ _____    ______ ____
ROOT
ATOM      1  C   GLY A   5       4.724   3.778  15.676  0.00  0.00    +0.243 C 
ATOM      2  N   ALA A   6       3.425   3.696  15.940  0.00  0.00    -0.297 N 
ATOM      3  H   ALA A   6       3.098   3.688  16.927  0.00  0.00    +0.150 HD
ATOM      4  O   GLY A   5       5.159   3.756  14.525  0.00  0.00    -0.273 OA
ENDROOT
BRANCH   2   5
ATOM      5  CA  ALA A   6       2.454   3.617  14.855  0.00  0.00    +0.149 C 
ATOM      6  CB  ALA A   6       1.402   2.556  15.163  0.00  0.00    +0.031 C 
BRANCH   5   7
ATOM      7  C   ALA A   6       1.788   4.981  14.674  0.00  0.00    +0.241 C 
ATOM      8  O   ALA A   6       1.321   5.577  15.647  0.00  0.00    -0.273 OA
ATOM      9  N   ASP A   7       1.753   5.477  13.439  0.00  0.00    -0.297 N 
ATOM     10  H   ASP A   7       2.176   4.936  12.658  0.00  0.00    +0.150 HD
BRANCH   9  11
ATOM     11  CA  ASP A   7       1.129   6.769  13.164  0.00  0.00    +0.160 C 
BRANCH  11  12
ATOM     12  C   ASP A   7      -0.384   6.624  13.220  0.00  0.00    +0.241 C 
ATOM     13  O   ASP A   7      -1.094   7.561  13.593  0.00  0.00    -0.273 OA
ATOM     14  N   ASP A   8      -0.876   5.443  12.856  0.00  0.00    -0.297 N 
ATOM     15  H   ASP A   8      -0.229   4.680  12.572  0.00  0.00    +0.150 HD
BRANCH  14  16
ATOM     16  CA  ASP A   8      -2.312   5.212  12.853  0.00  0.00    +0.160 C 
BRANCH  16  17
ATOM     17  C   ASP A   8      -2.728   4.092  13.780  0.00  0.00    +0.241 C 
ATOM     18  O   ASP A   8      -1.898   3.301  14.237  0.00  0.00    -0.273 OA
ATOM     19  N   THR A   9      -4.028   4.041  14.038  0.00  0.00    -0.295 N 
ATOM     20  H   THR A   9      -4.643   4.760  13.607  0.00  0.00    +0.150 HD
BRANCH  19  21
ATOM     21  CA  THR A   9      -4.640   3.036  14.890  0.00  0.00    +0.176 C 
BRANCH  21  22
ATOM     22  C   THR A   9      -5.103   1.881  13.996  0.00  0.00    +0.243 C 
ATOM     23  N   VAL A  10      -4.623   0.673  14.271  0.00  0.00    -0.298 N 
ATOM     24  H   VAL A  10      -3.975   0.552  15.076  0.00  0.00    +0.150 HD
ATOM     25  O   THR A   9      -5.887   2.086  13.074  0.00  0.00    -0.273 OA
BRANCH  23  26
ATOM     26  CA  VAL A  10      -4.987  -0.486  13.466  0.00  0.00    +0.137 C 
BRANCH  26  27
ATOM     27  CB  VAL A  10      -3.774  -1.029  12.662  0.00  0.00    +0.026 C 
ATOM     28  CG2 VAL A  10      -3.031   0.117  11.996  0.00  0.00    +0.002 C 
ATOM     29  CG1 VAL A  10      -4.239  -2.035  11.631  0.00  0.00    +0.002 C 
ENDBRANCH  26  27
BRANCH  26  30
ATOM     30  C   VAL A  10      -5.528  -1.587  14.356  0.00  0.00    +0.227 C 
ATOM     31  O   VAL A  10      -4.868  -2.023  15.302  0.00  0.00    -0.286 OA
ENDBRANCH  26  30
ENDBRANCH  23  26
ENDBRANCH  21  22
BRANCH  21  32
ATOM     32  CB  THR A   9      -5.859   3.632  15.636  0.00  0.00    +0.137 C 
ATOM     33  CG2 THR A   9      -6.690   2.523  16.290  0.00  0.00    +0.034 C 
BRANCH  32  34
ATOM     34  OG1 THR A   9      -5.401   4.555  16.634  0.00  0.00    -0.382 OA
ATOM     35  HG1 THR A   9      -4.890   5.283  16.199  0.00  0.00    +0.210 HD
ENDBRANCH  32  34
ENDBRANCH  21  32
ENDBRANCH  19  21
ENDBRANCH  16  17
BRANCH  16  36
ATOM     36  CB  ASP A   8      -2.786   4.882  11.441  0.00  0.00    +0.143 C 
BRANCH  36  37
ATOM     37  CG  ASP A   8      -2.434   5.961  10.447  0.00  0.00    +0.367 C 
ATOM     38  OD2 ASP A   8      -2.915   7.104  10.618  0.00  0.00    -0.246 OA
ATOM     39  OD1 ASP A   8      -1.676   5.660   9.503  0.00  0.00    -0.246 OA
ENDBRANCH  36  37
ENDBRANCH  16  36
ENDBRANCH  14  16
ENDBRANCH  11  12
BRANCH  11  40
ATOM     40  CB  ASP A   7       1.514   7.287  11.773  0.00  0.00    +0.143 C 
BRANCH  40  41
ATOM     41  CG  ASP A   7       3.008   7.236  11.527  0.00  0.00    +0.367 C 
ATOM     42  OD2 ASP A   7       3.760   8.012  12.152  0.00  0.00    -0.246 OA
ATOM     43  OD1 ASP A   7       3.429   6.400  10.712  0.00  0.00    -0.246 OA
ENDBRANCH  40  41
ENDBRANCH  11  40
ENDBRANCH   9  11
ENDBRANCH   5   7
ENDBRANCH   2   5
BRANCH   1  44
ATOM     44  CA  GLY A   5       5.668   3.877  16.864  0.00  0.00    +0.176 C 
BRANCH  44  46
ATOM     45  C   THR A   4       4.664   5.317  18.541  0.00  0.00    +0.243 C 
ATOM     46  N   GLY A   5       4.992   4.094  18.132  0.00  0.00    -0.295 N 
ATOM     47  H   GLY A   5       4.760   3.277  18.732  0.00  0.00    +0.150 HD
ATOM     48  O   THR A   4       4.884   6.328  17.880  0.00  0.00    -0.273 OA
BRANCH  45  49
ATOM     49  CA  THR A   4       3.937   5.408  19.879  0.00  0.00    +0.176 C 
BRANCH  49  51
ATOM     50  C   ASP A   3       2.449   3.509  19.749  0.00  0.00    +0.241 C 
ATOM     51  N   THR A   4       3.476   4.103  20.352  0.00  0.00    -0.295 N 
ATOM     52  H   THR A   4       3.948   3.642  21.155  0.00  0.00    +0.150 HD
ATOM     53  O   ASP A   3       1.875   4.007  18.781  0.00  0.00    -0.273 OA
BRANCH  50  54
ATOM     54  CA  ASP A   3       2.009   2.151  20.293  0.00  0.00    +0.160 C 
BRANCH  54  57
ATOM     55  C   LEU A   2       0.900   1.841  22.453  0.00  0.00    +0.241 C 
ATOM     56  O   LEU A   2       1.940   1.511  23.026  0.00  0.00    -0.273 OA
ATOM     57  N   ASP A   3       0.852   2.204  21.176  0.00  0.00    -0.297 N 
ATOM     58  H   ASP A   3      -0.053   2.541  20.789  0.00  0.00    +0.150 HD
BRANCH  55  59
ATOM     59  CA  LEU A   2      -0.439   1.863  23.192  0.00  0.00    +0.149 C 
BRANCH  59  61
ATOM     60  C   LEU A   1      -1.148  -0.333  22.393  0.00  0.00    +0.238 C 
ATOM     61  N   LEU A   2      -0.752   0.444  23.401  0.00  0.00    -0.297 N 
ATOM     62  H   LEU A   2      -0.663   0.037  24.354  0.00  0.00    +0.150 HD
ATOM     63  O   LEU A   1      -1.329   0.099  21.248  0.00  0.00    -0.274 OA
BRANCH  60  64
ATOM     64  CA  LEU A   1      -1.389  -1.814  22.716  0.00  0.00    +0.145 C 
BRANCH  64  65
ATOM     65  N   LEU A   1      -2.710  -2.285  22.327  0.00  0.00    -0.238 NA
ATOM     66  H   LEU A   1      -2.867  -2.544  21.332  0.00  0.00    +0.142 HD
ENDBRANCH  64  65
BRANCH  64  67
ATOM     67  CB  LEU A   1      -0.357  -2.672  21.991  0.00  0.00    +0.026 C 
BRANCH  67  68
ATOM     68  CG  LEU A   1       1.136  -2.509  22.227  0.00  0.00    +0.002 C 
ATOM     69  CD2 LEU A   1       1.523  -3.218  23.515  0.00  0.00    +0.000 C 
ATOM     70  CD1 LEU A   1       1.897  -3.125  21.050  0.00  0.00    +0.000 C 
ENDBRANCH  67  68
ENDBRANCH  64  67
ENDBRANCH  60  64
ENDBRANCH  59  61
BRANCH  59  71
ATOM     71  CB  LEU A   2      -0.310   2.605  24.529  0.00  0.00    +0.029 C 
BRANCH  71  72
ATOM     72  CG  LEU A   2      -1.536   2.559  25.456  0.00  0.00    +0.002 C 
ATOM     73  CD2 LEU A   2      -1.274   3.409  26.690  0.00  0.00    +0.000 C 
ATOM     74  CD1 LEU A   2      -2.784   3.057  24.728  0.00  0.00    +0.000 C 
ENDBRANCH  71  72
ENDBRANCH  59  71
ENDBRANCH  55  59
ENDBRANCH  54  57
BRANCH  54  75
ATOM     75  CB  ASP A   3       1.645   1.215  19.139  0.00  0.00    +0.143 C 
BRANCH  75  76
ATOM     76  CG  ASP A   3       2.791   0.943  18.216  0.00  0.00    +0.367 C 
ATOM     77  OD2 ASP A   3       3.867   1.560  18.365  0.00  0.00    -0.246 OA
ATOM     78  OD1 ASP A   3       2.594   0.098  17.329  0.00  0.00    -0.246 OA
ENDBRANCH  75  76
ENDBRANCH  54  75
ENDBRANCH  50  54
ENDBRANCH  49  51
BRANCH  49  79
ATOM     79  CB  THR A   4       4.840   6.099  20.918  0.00  0.00    +0.137 C 
ATOM     80  CG2 THR A   4       4.023   6.427  22.167  0.00  0.00    +0.034 C 
BRANCH  79  81
ATOM     81  OG1 THR A   4       5.939   5.240  21.258  0.00  0.00    -0.382 OA
ATOM     82  HG1 THR A   4       6.467   5.044  20.444  0.00  0.00    +0.210 HD
ENDBRANCH  79  81
ENDBRANCH  49  79
ENDBRANCH  45  49
ENDBRANCH  44  46
ENDBRANCH   1  44
TORSDOF 35
REMARK  Name = ../refined-set-2016/1t7j/1t7j_pocket.pdb
REMARK  214 active torsions:
REMARK  status: ('A' for Active; 'I' for Inactive)
REMARK    1  A    between atoms: _1  and  _3
REMARK    2  A    between atoms: _3  and  _4
REMARK    3  A    between atoms: _3  and  _6
REMARK    4  A    between atoms: _6  and  _7
REMARK    5  A    between atoms: _7  and  _8
REMARK    6  A    between atoms: _8  and  _9
REMARK    7  A    between atoms: _18  and  _20
REMARK    8  A    between atoms: _20  and  _21
REMARK    9  A    between atoms: _20  and  _23
REMARK   10  A    between atoms: _23  and  _24
REMARK   11  A    between atoms: _27  and  _29
REMARK   12  A    between atoms: _29  and  _30
REMARK   13  A    between atoms: _29  and  _32
REMARK   14  A    between atoms: _32  and  _33
REMARK   15  A    between atoms: _36  and  _38
REMARK   16  A    between atoms: _38  and  _39
REMARK   17  A    between atoms: _38  and  _41
REMARK   18  A    between atoms: _41  and  _42
REMARK   19  A    between atoms: _45  and  _47
REMARK   20  A    between atoms: _47  and  _48
REMARK   21  A    between atoms: _47  and  _50
REMARK   22  A    between atoms: _50  and  _51
REMARK   23  A    between atoms: _54  and  _56
REMARK   24  A    between atoms: _56  and  _57
REMARK   25  A    between atoms: _59  and  _61
REMARK   26  A    between atoms: _61  and  _62
REMARK   27  A    between atoms: _65  and  _67
REMARK   28  A    between atoms: _67  and  _68
REMARK   29  A    between atoms: _67  and  _70
REMARK   30  A    between atoms: _70  and  _71
REMARK   31  A    between atoms: _74  and  _76
REMARK   32  A    between atoms: _76  and  _77
REMARK   33  A    between atoms: _76  and  _79
REMARK   34  A    between atoms: _79  and  _80
REMARK   35  A    between atoms: _83  and  _85
REMARK   36  A    between atoms: _85  and  _86
REMARK   37  A    between atoms: _85  and  _88
REMARK   38  A    between atoms: _88  and  _89
REMARK   39  A    between atoms: _92  and  _94
REMARK   40  A    between atoms: _94  and  _95
REMARK   41  A    between atoms: _94  and  _97
REMARK   42  A    between atoms: _100  and  _102
REMARK   43  A    between atoms: _102  and  _103
REMARK   44  A    between atoms: _102  and  _105
REMARK   45  A    between atoms: _105  and  _106
REMARK   46  A    between atoms: _109  and  _111
REMARK   47  A    between atoms: _111  and  _112
REMARK   48  A    between atoms: _114  and  _116
REMARK   49  A    between atoms: _116  and  _117
REMARK   50  A    between atoms: _119  and  _121
REMARK   51  A    between atoms: _121  and  _122
REMARK   52  A    between atoms: _121  and  _124
REMARK   53  A    between atoms: _124  and  _125
REMARK   54  A    between atoms: _128  and  _130
REMARK   55  A    between atoms: _130  and  _131
REMARK   56  A    between atoms: _133  and  _135
REMARK   57  A    between atoms: _135  and  _136
REMARK   58  A    between atoms: _138  and  _140
REMARK   59  A    between atoms: _140  and  _141
REMARK   60  A    between atoms: _140  and  _143
REMARK   61  A    between atoms: _143  and  _144
REMARK   62  A    between atoms: _147  and  _149
REMARK   63  A    between atoms: _149  and  _150
REMARK   64  A    between atoms: _149  and  _152
REMARK   65  A    between atoms: _152  and  _153
REMARK   66  A    between atoms: _156  and  _158
REMARK   67  A    between atoms: _158  and  _159
REMARK   68  A    between atoms: _158  and  _161
REMARK   69  A    between atoms: _161  and  _162
REMARK   70  A    between atoms: _166  and  _167
REMARK   71  A    between atoms: _172  and  _174
REMARK   72  A    between atoms: _174  and  _175
REMARK   73  A    between atoms: _174  and  _177
REMARK   74  A    between atoms: _177  and  _178
REMARK   75  A    between atoms: _181  and  _183
REMARK   76  A    between atoms: _183  and  _184
REMARK   77  A    between atoms: _183  and  _186
REMARK   78  A    between atoms: _186  and  _187
REMARK   79  A    between atoms: _192  and  _194
REMARK   80  A    between atoms: _194  and  _195
REMARK   81  A    between atoms: _194  and  _197
REMARK   82  A    between atoms: _200  and  _202
REMARK   83  A    between atoms: _202  and  _203
REMARK   84  A    between atoms: _202  and  _205
REMARK   85  A    between atoms: _205  and  _206
REMARK   86  A    between atoms: _209  and  _211
REMARK   87  A    between atoms: _211  and  _212
REMARK   88  A    between atoms: _214  and  _216
REMARK   89  A    between atoms: _216  and  _217
REMARK   90  A    between atoms: _216  and  _219
REMARK   91  A    between atoms: _219  and  _220
REMARK   92  A    between atoms: _220  and  _221
REMARK   93  A    between atoms: _221  and  _222
REMARK   94  A    between atoms: _231  and  _233
REMARK   95  A    between atoms: _233  and  _234
REMARK   96  A    between atoms: _233  and  _236
REMARK   97  A    between atoms: _236  and  _237
REMARK   98  A    between atoms: _242  and  _244
REMARK   99  A    between atoms: _244  and  _245
REMARK  100  A    between atoms: _244  and  _247
REMARK  101  A    between atoms: _247  and  _248
REMARK  102  A    between atoms: _248  and  _249
REMARK  103  A    between atoms: _249  and  _250
REMARK  104  A    between atoms: _259  and  _261
REMARK  105  A    between atoms: _261  and  _262
REMARK  106  A    between atoms: _261  and  _264
REMARK  107  A    between atoms: _264  and  _265
REMARK  108  A    between atoms: _268  and  _270
REMARK  109  A    between atoms: _270  and  _271
REMARK  110  A    between atoms: _270  and  _273
REMARK  111  A    between atoms: _273  and  _274
REMARK  112  A    between atoms: _277  and  _279
REMARK  113  A    between atoms: _279  and  _280
REMARK  114  A    between atoms: _279  and  _282
REMARK  115  A    between atoms: _282  and  _283
REMARK  116  A    between atoms: _286  and  _288
REMARK  117  A    between atoms: _288  and  _289
REMARK  118  A    between atoms: _288  and  _291
REMARK  119  A    between atoms: _291  and  _292
REMARK  120  A    between atoms: _295  and  _297
REMARK  121  A    between atoms: _297  and  _298
REMARK  122  A    between atoms: _300  and  _302
REMARK  123  A    between atoms: _302  and  _303
REMARK  124  A    between atoms: _306  and  _308
REMARK  125  A    between atoms: _308  and  _309
REMARK  126  A    between atoms: _308  and  _311
REMARK  127  A    between atoms: _311  and  _312
REMARK  128  A    between atoms: _315  and  _317
REMARK  129  A    between atoms: _317  and  _318
REMARK  130  A    between atoms: _317  and  _320
REMARK  131  A    between atoms: _320  and  _321
REMARK  132  A    between atoms: _324  and  _326
REMARK  133  A    between atoms: _326  and  _327
REMARK  134  A    between atoms: _326  and  _329
REMARK  135  A    between atoms: _329  and  _330
REMARK  136  A    between atoms: _333  and  _335
REMARK  137  A    between atoms: _335  and  _336
REMARK  138  A    between atoms: _335  and  _338
REMARK  139  A    between atoms: _341  and  _343
REMARK  140  A    between atoms: _343  and  _344
REMARK  141  A    between atoms: _343  and  _346
REMARK  142  A    between atoms: _346  and  _347
REMARK  143  A    between atoms: _350  and  _352
REMARK  144  A    between atoms: _352  and  _353
REMARK  145  A    between atoms: _352  and  _355
REMARK  146  A    between atoms: _355  and  _356
REMARK  147  A    between atoms: _356  and  _357
REMARK  148  A    between atoms: _357  and  _358
REMARK  149  A    between atoms: _358  and  _359
REMARK  150  A    between atoms: _363  and  _365
REMARK  151  A    between atoms: _365  and  _366
REMARK  152  A    between atoms: _365  and  _368
REMARK  153  A    between atoms: _368  and  _369
REMARK  154  A    between atoms: _369  and  _370
REMARK  155  A    between atoms: _372  and  _374
REMARK  156  A    between atoms: _374  and  _375
REMARK  157  A    between atoms: _374  and  _377
REMARK  158  A    between atoms: _377  and  _378
REMARK  159  A    between atoms: _381  and  _383
REMARK  160  A    between atoms: _383  and  _384
REMARK  161  A    between atoms: _386  and  _388
REMARK  162  A    between atoms: _388  and  _389
REMARK  163  A    between atoms: _391  and  _393
REMARK  164  A    between atoms: _393  and  _394
REMARK  165  A    between atoms: _393  and  _396
REMARK  166  A    between atoms: _396  and  _397
REMARK  167  A    between atoms: _400  and  _402
REMARK  168  A    between atoms: _402  and  _403
REMARK  169  A    between atoms: _405  and  _407
REMARK  170  A    between atoms: _407  and  _408
REMARK  171  A    between atoms: _410  and  _412
REMARK  172  A    between atoms: _412  and  _413
REMARK  173  A    between atoms: _412  and  _415
REMARK  174  A    between atoms: _415  and  _416
REMARK  175  A    between atoms: _419  and  _421
REMARK  176  A    between atoms: _421  and  _422
REMARK  177  A    between atoms: _421  and  _424
REMARK  178  A    between atoms: _427  and  _429
REMARK  179  A    between atoms: _429  and  _430
REMARK  180  A    between atoms: _429  and  _432
REMARK  181  A    between atoms: _432  and  _433
REMARK  182  A    between atoms: _437  and  _438
REMARK  183  A    between atoms: _443  and  _445
REMARK  184  A    between atoms: _445  and  _446
REMARK  185  A    between atoms: _445  and  _448
REMARK  186  A    between atoms: _448  and  _449
REMARK  187  A    between atoms: _453  and  _454
REMARK  188  A    between atoms: _459  and  _461
REMARK  189  A    between atoms: _461  and  _462
REMARK  190  A    between atoms: _461  and  _464
REMARK  191  A    between atoms: _464  and  _465
REMARK  192  A    between atoms: _468  and  _470
REMARK  193  A    between atoms: _470  and  _471
REMARK  194  A    between atoms: _470  and  _473
REMARK  195  A    between atoms: _473  and  _474
REMARK  196  A    between atoms: _479  and  _481
REMARK  197  A    between atoms: _481  and  _482
REMARK  198  A    between atoms: _481  and  _484
REMARK  199  A    between atoms: _487  and  _489
REMARK  200  A    between atoms: _489  and  _490
REMARK  201  A    between atoms: _489  and  _492
REMARK  202  A    between atoms: _492  and  _493
REMARK  203  A    between atoms: _496  and  _498
REMARK  204  A    between atoms: _498  and  _499
REMARK  205  A    between atoms: _501  and  _503
REMARK  206  A    between atoms: _503  and  _504
REMARK  207  A    between atoms: _503  and  _506
REMARK  208  A    between atoms: _506  and  _507
REMARK  209  A    between atoms: _507  and  _508
REMARK  210  A    between atoms: _508  and  _509
REMARK  211  A    between atoms: _518  and  _520
REMARK  212  A    between atoms: _520  and  _521
REMARK  213  A    between atoms: _520  and  _523
REMARK  214  A    between atoms: _523  and  _524
REMARK                            x       y       z     vdW  Elec       q    Type
REMARK                         _______ _______ _______ _____ _____    ______ ____
ROOT
ATOM      1  C   GLY A   3       6.033  -2.404   8.429  0.00  0.00    +0.243 C 
ATOM      2  N   ILE A   4       6.563  -3.053   9.455  0.00  0.00    -0.297 N 
ATOM      3  H   ILE A   4       5.983  -3.268  10.291  0.00  0.00    +0.150 HD
ATOM      4  O   GLY A   3       6.665  -2.163   7.399  0.00  0.00    -0.273 OA
ENDROOT
BRANCH   2   5
ATOM      5  CA  ILE A   4       7.951  -3.462   9.412  0.00  0.00    +0.149 C 
BRANCH   5   6
ATOM      6  C   ILE A   4       8.197  -4.529   8.358  0.00  0.00    +0.241 C 
ATOM      7  N   GLY A   5       7.220  -5.401   8.145  0.00  0.00    -0.295 N 
ATOM      8  H   GLY A   5       6.328  -5.325   8.675  0.00  0.00    +0.150 HD
ATOM      9  O   ILE A   4       9.253  -4.547   7.735  0.00  0.00    -0.273 OA
BRANCH   7  10
ATOM     10  CA  GLY A   5       7.400  -6.463   7.169  0.00  0.00    +0.176 C 
BRANCH  10  11
ATOM     11  C   GLY A   5       6.783  -6.276   5.795  0.00  0.00    +0.243 C 
ATOM     12  N   GLY A   6       6.227  -5.102   5.527  0.00  0.00    -0.296 N 
ATOM     13  H   GLY A   6       6.223  -4.351   6.246  0.00  0.00    +0.150 HD
ATOM     14  O   GLY A   5       6.807  -7.194   4.977  0.00  0.00    -0.273 OA
BRANCH  12  15
ATOM     15  CA  GLY A   6       5.626  -4.870   4.230  0.00  0.00    +0.163 C 
BRANCH  15  16
ATOM     16  C   GLY A   6       4.296  -4.148   4.336  0.00  0.00    +0.229 C 
ATOM     17  O   GLY A   6       3.952  -3.629   5.394  0.00  0.00    -0.286 OA
ENDBRANCH  15  16
ENDBRANCH  12  15
ENDBRANCH  10  11
ENDBRANCH   7  10
ENDBRANCH   5   6
BRANCH   5  18
ATOM     18  CB  ILE A   4       8.431  -3.986  10.779  0.00  0.00    +0.027 C 
ATOM     19  CG2 ILE A   4       7.720  -5.284  11.120  0.00  0.00    +0.002 C 
BRANCH  18  20
ATOM     20  CG1 ILE A   4       9.950  -4.196  10.740  0.00  0.00    +0.002 C 
ATOM     21  CD1 ILE A   4      10.545  -4.599  12.068  0.00  0.00    +0.000 C 
ENDBRANCH  18  20
ENDBRANCH   5  18
ENDBRANCH   2   5
BRANCH   1  22
ATOM     22  CA  GLY A   3       4.585  -1.991   8.566  0.00  0.00    +0.176 C 
BRANCH  22  25
ATOM     23  C   GLY A   2       3.628  -0.457   6.964  0.00  0.00    +0.243 C 
ATOM     24  O   GLY A   2       3.603   0.458   7.773  0.00  0.00    -0.273 OA
ATOM     25  N   GLY A   3       4.065  -1.675   7.255  0.00  0.00    -0.295 N 
ATOM     26  H   GLY A   3       4.033  -2.416   6.526  0.00  0.00    +0.150 HD
BRANCH  23  27
ATOM     27  CA  GLY A   2       3.120  -0.255   5.556  0.00  0.00    +0.176 C 
BRANCH  27  29
ATOM     28  C   ILE A   1       0.758  -0.078   5.154  0.00  0.00    +0.238 C 
ATOM     29  N   GLY A   2       1.886   0.501   5.539  0.00  0.00    -0.296 N 
ATOM     30  H   GLY A   2       1.885   1.500   5.829  0.00  0.00    +0.150 HD
ATOM     31  O   ILE A   1       0.693  -1.253   4.809  0.00  0.00    -0.274 OA
BRANCH  28  32
ATOM     32  CA  ILE A   1      -0.476   0.799   5.165  0.00  0.00    +0.145 C 
BRANCH  32  33
ATOM     33  N   ILE A   1      -1.469   0.251   4.254  0.00  0.00    -0.238 NA
ATOM     34  H   ILE A   1      -1.805  -0.724   4.391  0.00  0.00    +0.142 HD
ENDBRANCH  32  33
BRANCH  32  35
ATOM     35  CB  ILE A   1      -0.981   0.872   6.613  0.00  0.00    +0.025 C 
ATOM     36  CG2 ILE A   1      -1.939   2.036   6.770  0.00  0.00    +0.002 C 
BRANCH  35  37
ATOM     37  CG1 ILE A   1      -1.608  -0.462   7.011  0.00  0.00    +0.002 C 
ATOM     38  CD1 ILE A   1      -1.856  -0.579   8.487  0.00  0.00    +0.000 C 
ENDBRANCH  35  37
ENDBRANCH  32  35
ENDBRANCH  28  32
ENDBRANCH  27  29
ENDBRANCH  23  27
ENDBRANCH  22  25
ENDBRANCH   1  22
TORSDOF 16
REMARK  Name = ../refined-set-2016/1t7j/1t7j_pocket.pdb
REMARK  214 active torsions:
REMARK  status: ('A' for Active; 'I' for Inactive)
REMARK    1  A    between atoms: _1  and  _3
REMARK    2  A    between atoms: _3  and  _4
REMARK    3  A    between atoms: _3  and  _6
REMARK    4  A    between atoms: _6  and  _7
REMARK    5  A    between atoms: _7  and  _8
REMARK    6  A    between atoms: _8  and  _9
REMARK    7  A    between atoms: _18  and  _20
REMARK    8  A    between atoms: _20  and  _21
REMARK    9  A    between atoms: _20  and  _23
REMARK   10  A    between atoms: _23  and  _24
REMARK   11  A    between atoms: _27  and  _29
REMARK   12  A    between atoms: _29  and  _30
REMARK   13  A    between atoms: _29  and  _32
REMARK   14  A    between atoms: _32  and  _33
REMARK   15  A    between atoms: _36  and  _38
REMARK   16  A    between atoms: _38  and  _39
REMARK   17  A    between atoms: _38  and  _41
REMARK   18  A    between atoms: _41  and  _42
REMARK   19  A    between atoms: _45  and  _47
REMARK   20  A    between atoms: _47  and  _48
REMARK   21  A    between atoms: _47  and  _50
REMARK   22  A    between atoms: _50  and  _51
REMARK   23  A    between atoms: _54  and  _56
REMARK   24  A    between atoms: _56  and  _57
REMARK   25  A    between atoms: _59  and  _61
REMARK   26  A    between atoms: _61  and  _62
REMARK   27  A    between atoms: _65  and  _67
REMARK   28  A    between atoms: _67  and  _68
REMARK   29  A    between atoms: _67  and  _70
REMARK   30  A    between atoms: _70  and  _71
REMARK   31  A    between atoms: _74  and  _76
REMARK   32  A    between atoms: _76  and  _77
REMARK   33  A    between atoms: _76  and  _79
REMARK   34  A    between atoms: _79  and  _80
REMARK   35  A    between atoms: _83  and  _85
REMARK   36  A    between atoms: _85  and  _86
REMARK   37  A    between atoms: _85  and  _88
REMARK   38  A    between atoms: _88  and  _89
REMARK   39  A    between atoms: _92  and  _94
REMARK   40  A    between atoms: _94  and  _95
REMARK   41  A    between atoms: _94  and  _97
REMARK   42  A    between atoms: _100  and  _102
REMARK   43  A    between atoms: _102  and  _103
REMARK   44  A    between atoms: _102  and  _105
REMARK   45  A    between atoms: _105  and  _106
REMARK   46  A    between atoms: _109  and  _111
REMARK   47  A    between atoms: _111  and  _112
REMARK   48  A    between atoms: _114  and  _116
REMARK   49  A    between atoms: _116  and  _117
REMARK   50  A    between atoms: _119  and  _121
REMARK   51  A    between atoms: _121  and  _122
REMARK   52  A    between atoms: _121  and  _124
REMARK   53  A    between atoms: _124  and  _125
REMARK   54  A    between atoms: _128  and  _130
REMARK   55  A    between atoms: _130  and  _131
REMARK   56  A    between atoms: _133  and  _135
REMARK   57  A    between atoms: _135  and  _136
REMARK   58  A    between atoms: _138  and  _140
REMARK   59  A    between atoms: _140  and  _141
REMARK   60  A    between atoms: _140  and  _143
REMARK   61  A    between atoms: _143  and  _144
REMARK   62  A    between atoms: _147  and  _149
REMARK   63  A    between atoms: _149  and  _150
REMARK   64  A    between atoms: _149  and  _152
REMARK   65  A    between atoms: _152  and  _153
REMARK   66  A    between atoms: _156  and  _158
REMARK   67  A    between atoms: _158  and  _159
REMARK   68  A    between atoms: _158  and  _161
REMARK   69  A    between atoms: _161  and  _162
REMARK   70  A    between atoms: _166  and  _167
REMARK   71  A    between atoms: _172  and  _174
REMARK   72  A    between atoms: _174  and  _175
REMARK   73  A    between atoms: _174  and  _177
REMARK   74  A    between atoms: _177  and  _178
REMARK   75  A    between atoms: _181  and  _183
REMARK   76  A    between atoms: _183  and  _184
REMARK   77  A    between atoms: _183  and  _186
REMARK   78  A    between atoms: _186  and  _187
REMARK   79  A    between atoms: _192  and  _194
REMARK   80  A    between atoms: _194  and  _195
REMARK   81  A    between atoms: _194  and  _197
REMARK   82  A    between atoms: _200  and  _202
REMARK   83  A    between atoms: _202  and  _203
REMARK   84  A    between atoms: _202  and  _205
REMARK   85  A    between atoms: _205  and  _206
REMARK   86  A    between atoms: _209  and  _211
REMARK   87  A    between atoms: _211  and  _212
REMARK   88  A    between atoms: _214  and  _216
REMARK   89  A    between atoms: _216  and  _217
REMARK   90  A    between atoms: _216  and  _219
REMARK   91  A    between atoms: _219  and  _220
REMARK   92  A    between atoms: _220  and  _221
REMARK   93  A    between atoms: _221  and  _222
REMARK   94  A    between atoms: _231  and  _233
REMARK   95  A    between atoms: _233  and  _234
REMARK   96  A    between atoms: _233  and  _236
REMARK   97  A    between atoms: _236  and  _237
REMARK   98  A    between atoms: _242  and  _244
REMARK   99  A    between atoms: _244  and  _245
REMARK  100  A    between atoms: _244  and  _247
REMARK  101  A    between atoms: _247  and  _248
REMARK  102  A    between atoms: _248  and  _249
REMARK  103  A    between atoms: _249  and  _250
REMARK  104  A    between atoms: _259  and  _261
REMARK  105  A    between atoms: _261  and  _262
REMARK  106  A    between atoms: _261  and  _264
REMARK  107  A    between atoms: _264  and  _265
REMARK  108  A    between atoms: _268  and  _270
REMARK  109  A    between atoms: _270  and  _271
REMARK  110  A    between atoms: _270  and  _273
REMARK  111  A    between atoms: _273  and  _274
REMARK  112  A    between atoms: _277  and  _279
REMARK  113  A    between atoms: _279  and  _280
REMARK  114  A    between atoms: _279  and  _282
REMARK  115  A    between atoms: _282  and  _283
REMARK  116  A    between atoms: _286  and  _288
REMARK  117  A    between atoms: _288  and  _289
REMARK  118  A    between atoms: _288  and  _291
REMARK  119  A    between atoms: _291  and  _292
REMARK  120  A    between atoms: _295  and  _297
REMARK  121  A    between atoms: _297  and  _298
REMARK  122  A    between atoms: _300  and  _302
REMARK  123  A    between atoms: _302  and  _303
REMARK  124  A    between atoms: _306  and  _308
REMARK  125  A    between atoms: _308  and  _309
REMARK  126  A    between atoms: _308  and  _311
REMARK  127  A    between atoms: _311  and  _312
REMARK  128  A    between atoms: _315  and  _317
REMARK  129  A    between atoms: _317  and  _318
REMARK  130  A    between atoms: _317  and  _320
REMARK  131  A    between atoms: _320  and  _321
REMARK  132  A    between atoms: _324  and  _326
REMARK  133  A    between atoms: _326  and  _327
REMARK  134  A    between atoms: _326  and  _329
REMARK  135  A    between atoms: _329  and  _330
REMARK  136  A    between atoms: _333  and  _335
REMARK  137  A    between atoms: _335  and  _336
REMARK  138  A    between atoms: _335  and  _338
REMARK  139  A    between atoms: _341  and  _343
REMARK  140  A    between atoms: _343  and  _344
REMARK  141  A    between atoms: _343  and  _346
REMARK  142  A    between atoms: _346  and  _347
REMARK  143  A    between atoms: _350  and  _352
REMARK  144  A    between atoms: _352  and  _353
REMARK  145  A    between atoms: _352  and  _355
REMARK  146  A    between atoms: _355  and  _356
REMARK  147  A    between atoms: _356  and  _357
REMARK  148  A    between atoms: _357  and  _358
REMARK  149  A    between atoms: _358  and  _359
REMARK  150  A    between atoms: _363  and  _365
REMARK  151  A    between atoms: _365  and  _366
REMARK  152  A    between atoms: _365  and  _368
REMARK  153  A    between atoms: _368  and  _369
REMARK  154  A    between atoms: _369  and  _370
REMARK  155  A    between atoms: _372  and  _374
REMARK  156  A    between atoms: _374  and  _375
REMARK  157  A    between atoms: _374  and  _377
REMARK  158  A    between atoms: _377  and  _378
REMARK  159  A    between atoms: _381  and  _383
REMARK  160  A    between atoms: _383  and  _384
REMARK  161  A    between atoms: _386  and  _388
REMARK  162  A    between atoms: _388  and  _389
REMARK  163  A    between atoms: _391  and  _393
REMARK  164  A    between atoms: _393  and  _394
REMARK  165  A    between atoms: _393  and  _396
REMARK  166  A    between atoms: _396  and  _397
REMARK  167  A    between atoms: _400  and  _402
REMARK  168  A    between atoms: _402  and  _403
REMARK  169  A    between atoms: _405  and  _407
REMARK  170  A    between atoms: _407  and  _408
REMARK  171  A    between atoms: _410  and  _412
REMARK  172  A    between atoms: _412  and  _413
REMARK  173  A    between atoms: _412  and  _415
REMARK  174  A    between atoms: _415  and  _416
REMARK  175  A    between atoms: _419  and  _421
REMARK  176  A    between atoms: _421  and  _422
REMARK  177  A    between atoms: _421  and  _424
REMARK  178  A    between atoms: _427  and  _429
REMARK  179  A    between atoms: _429  and  _430
REMARK  180  A    between atoms: _429  and  _432
REMARK  181  A    between atoms: _432  and  _433
REMARK  182  A    between atoms: _437  and  _438
REMARK  183  A    between atoms: _443  and  _445
REMARK  184  A    between atoms: _445  and  _446
REMARK  185  A    between atoms: _445  and  _448
REMARK  186  A    between atoms: _448  and  _449
REMARK  187  A    between atoms: _453  and  _454
REMARK  188  A    between atoms: _459  and  _461
REMARK  189  A    between atoms: _461  and  _462
REMARK  190  A    between atoms: _461  and  _464
REMARK  191  A    between atoms: _464  and  _465
REMARK  192  A    between atoms: _468  and  _470
REMARK  193  A    between atoms: _470  and  _471
REMARK  194  A    between atoms: _470  and  _473
REMARK  195  A    between atoms: _473  and  _474
REMARK  196  A    between atoms: _479  and  _481
REMARK  197  A    between atoms: _481  and  _482
REMARK  198  A    between atoms: _481  and  _484
REMARK  199  A    between atoms: _487  and  _489
REMARK  200  A    between atoms: _489  and  _490
REMARK  201  A    between atoms: _489  and  _492
REMARK  202  A    between atoms: _492  and  _493
REMARK  203  A    between atoms: _496  and  _498
REMARK  204  A    between atoms: _498  and  _499
REMARK  205  A    between atoms: _501  and  _503
REMARK  206  A    between atoms: _503  and  _504
REMARK  207  A    between atoms: _503  and  _506
REMARK  208  A    between atoms: _506  and  _507
REMARK  209  A    between atoms: _507  and  _508
REMARK  210  A    between atoms: _508  and  _509
REMARK  211  A    between atoms: _518  and  _520
REMARK  212  A    between atoms: _520  and  _521
REMARK  213  A    between atoms: _520  and  _523
REMARK  214  A    between atoms: _523  and  _524
REMARK                            x       y       z     vdW  Elec       q    Type
REMARK                         _______ _______ _______ _____ _____    ______ ____
ROOT
ATOM      1  CA  ILE A   1      -1.198  -4.777   3.949  0.00  0.00    +0.133 C 
ENDROOT
BRANCH   1   2
ATOM      2  N   ILE A   1       0.012  -3.975   3.866  0.00  0.00    -0.239 NA
ATOM      3  H   ILE A   1       0.036  -3.044   4.328  0.00  0.00    +0.142 HD
ENDBRANCH   1   2
BRANCH   1   4
ATOM      4  CB  ILE A   1      -1.473  -5.256   5.397  0.00  0.00    +0.023 C 
ATOM      5  CG2 ILE A   1      -0.259  -6.027   5.941  0.00  0.00    +0.002 C 
BRANCH   4   6
ATOM      6  CG1 ILE A   1      -1.799  -4.052   6.291  0.00  0.00    +0.002 C 
ATOM      7  CD1 ILE A   1      -2.288  -4.427   7.688  0.00  0.00    +0.000 C 
ENDBRANCH   4   6
ENDBRANCH   1   4
BRANCH   1   8
ATOM      8  C   ILE A   1      -2.376  -3.922   3.509  0.00  0.00    +0.224 C 
ATOM      9  O   ILE A   1      -2.270  -2.696   3.430  0.00  0.00    -0.287 OA
ENDBRANCH   1   8
TORSDOF 4
REMARK  Name = ../refined-set-2016/1t7j/1t7j_pocket.pdb
REMARK  214 active torsions:
REMARK  status: ('A' for Active; 'I' for Inactive)
REMARK    1  A    between atoms: _1  and  _3
REMARK    2  A    between atoms: _3  and  _4
REMARK    3  A    between atoms: _3  and  _6
REMARK    4  A    between atoms: _6  and  _7
REMARK    5  A    between atoms: _7  and  _8
REMARK    6  A    between atoms: _8  and  _9
REMARK    7  A    between atoms: _18  and  _20
REMARK    8  A    between atoms: _20  and  _21
REMARK    9  A    between atoms: _20  and  _23
REMARK   10  A    between atoms: _23  and  _24
REMARK   11  A    between atoms: _27  and  _29
REMARK   12  A    between atoms: _29  and  _30
REMARK   13  A    between atoms: _29  and  _32
REMARK   14  A    between atoms: _32  and  _33
REMARK   15  A    between atoms: _36  and  _38
REMARK   16  A    between atoms: _38  and  _39
REMARK   17  A    between atoms: _38  and  _41
REMARK   18  A    between atoms: _41  and  _42
REMARK   19  A    between atoms: _45  and  _47
REMARK   20  A    between atoms: _47  and  _48
REMARK   21  A    between atoms: _47  and  _50
REMARK   22  A    between atoms: _50  and  _51
REMARK   23  A    between atoms: _54  and  _56
REMARK   24  A    between atoms: _56  and  _57
REMARK   25  A    between atoms: _59  and  _61
REMARK   26  A    between atoms: _61  and  _62
REMARK   27  A    between atoms: _65  and  _67
REMARK   28  A    between atoms: _67  and  _68
REMARK   29  A    between atoms: _67  and  _70
REMARK   30  A    between atoms: _70  and  _71
REMARK   31  A    between atoms: _74  and  _76
REMARK   32  A    between atoms: _76  and  _77
REMARK   33  A    between atoms: _76  and  _79
REMARK   34  A    between atoms: _79  and  _80
REMARK   35  A    between atoms: _83  and  _85
REMARK   36  A    between atoms: _85  and  _86
REMARK   37  A    between atoms: _85  and  _88
REMARK   38  A    between atoms: _88  and  _89
REMARK   39  A    between atoms: _92  and  _94
REMARK   40  A    between atoms: _94  and  _95
REMARK   41  A    between atoms: _94  and  _97
REMARK   42  A    between atoms: _100  and  _102
REMARK   43  A    between atoms: _102  and  _103
REMARK   44  A    between atoms: _102  and  _105
REMARK   45  A    between atoms: _105  and  _106
REMARK   46  A    between atoms: _109  and  _111
REMARK   47  A    between atoms: _111  and  _112
REMARK   48  A    between atoms: _114  and  _116
REMARK   49  A    between atoms: _116  and  _117
REMARK   50  A    between atoms: _119  and  _121
REMARK   51  A    between atoms: _121  and  _122
REMARK   52  A    between atoms: _121  and  _124
REMARK   53  A    between atoms: _124  and  _125
REMARK   54  A    between atoms: _128  and  _130
REMARK   55  A    between atoms: _130  and  _131
REMARK   56  A    between atoms: _133  and  _135
REMARK   57  A    between atoms: _135  and  _136
REMARK   58  A    between atoms: _138  and  _140
REMARK   59  A    between atoms: _140  and  _141
REMARK   60  A    between atoms: _140  and  _143
REMARK   61  A    between atoms: _143  and  _144
REMARK   62  A    between atoms: _147  and  _149
REMARK   63  A    between atoms: _149  and  _150
REMARK   64  A    between atoms: _149  and  _152
REMARK   65  A    between atoms: _152  and  _153
REMARK   66  A    between atoms: _156  and  _158
REMARK   67  A    between atoms: _158  and  _159
REMARK   68  A    between atoms: _158  and  _161
REMARK   69  A    between atoms: _161  and  _162
REMARK   70  A    between atoms: _166  and  _167
REMARK   71  A    between atoms: _172  and  _174
REMARK   72  A    between atoms: _174  and  _175
REMARK   73  A    between atoms: _174  and  _177
REMARK   74  A    between atoms: _177  and  _178
REMARK   75  A    between atoms: _181  and  _183
REMARK   76  A    between atoms: _183  and  _184
REMARK   77  A    between atoms: _183  and  _186
REMARK   78  A    between atoms: _186  and  _187
REMARK   79  A    between atoms: _192  and  _194
REMARK   80  A    between atoms: _194  and  _195
REMARK   81  A    between atoms: _194  and  _197
REMARK   82  A    between atoms: _200  and  _202
REMARK   83  A    between atoms: _202  and  _203
REMARK   84  A    between atoms: _202  and  _205
REMARK   85  A    between atoms: _205  and  _206
REMARK   86  A    between atoms: _209  and  _211
REMARK   87  A    between atoms: _211  and  _212
REMARK   88  A    between atoms: _214  and  _216
REMARK   89  A    between atoms: _216  and  _217
REMARK   90  A    between atoms: _216  and  _219
REMARK   91  A    between atoms: _219  and  _220
REMARK   92  A    between atoms: _220  and  _221
REMARK   93  A    between atoms: _221  and  _222
REMARK   94  A    between atoms: _231  and  _233
REMARK   95  A    between atoms: _233  and  _234
REMARK   96  A    between atoms: _233  and  _236
REMARK   97  A    between atoms: _236  and  _237
REMARK   98  A    between atoms: _242  and  _244
REMARK   99  A    between atoms: _244  and  _245
REMARK  100  A    between atoms: _244  and  _247
REMARK  101  A    between atoms: _247  and  _248
REMARK  102  A    between atoms: _248  and  _249
REMARK  103  A    between atoms: _249  and  _250
REMARK  104  A    between atoms: _259  and  _261
REMARK  105  A    between atoms: _261  and  _262
REMARK  106  A    between atoms: _261  and  _264
REMARK  107  A    between atoms: _264  and  _265
REMARK  108  A    between atoms: _268  and  _270
REMARK  109  A    between atoms: _270  and  _271
REMARK  110  A    between atoms: _270  and  _273
REMARK  111  A    between atoms: _273  and  _274
REMARK  112  A    between atoms: _277  and  _279
REMARK  113  A    between atoms: _279  and  _280
REMARK  114  A    between atoms: _279  and  _282
REMARK  115  A    between atoms: _282  and  _283
REMARK  116  A    between atoms: _286  and  _288
REMARK  117  A    between atoms: _288  and  _289
REMARK  118  A    between atoms: _288  and  _291
REMARK  119  A    between atoms: _291  and  _292
REMARK  120  A    between atoms: _295  and  _297
REMARK  121  A    between atoms: _297  and  _298
REMARK  122  A    between atoms: _300  and  _302
REMARK  123  A    between atoms: _302  and  _303
REMARK  124  A    between atoms: _306  and  _308
REMARK  125  A    between atoms: _308  and  _309
REMARK  126  A    between atoms: _308  and  _311
REMARK  127  A    between atoms: _311  and  _312
REMARK  128  A    between atoms: _315  and  _317
REMARK  129  A    between atoms: _317  and  _318
REMARK  130  A    between atoms: _317  and  _320
REMARK  131  A    between atoms: _320  and  _321
REMARK  132  A    between atoms: _324  and  _326
REMARK  133  A    between atoms: _326  and  _327
REMARK  134  A    between atoms: _326  and  _329
REMARK  135  A    between atoms: _329  and  _330
REMARK  136  A    between atoms: _333  and  _335
REMARK  137  A    between atoms: _335  and  _336
REMARK  138  A    between atoms: _335  and  _338
REMARK  139  A    between atoms: _341  and  _343
REMARK  140  A    between atoms: _343  and  _344
REMARK  141  A    between atoms: _343  and  _346
REMARK  142  A    between atoms: _346  and  _347
REMARK  143  A    between atoms: _350  and  _352
REMARK  144  A    between atoms: _352  and  _353
REMARK  145  A    between atoms: _352  and  _355
REMARK  146  A    between atoms: _355  and  _356
REMARK  147  A    between atoms: _356  and  _357
REMARK  148  A    between atoms: _357  and  _358
REMARK  149  A    between atoms: _358  and  _359
REMARK  150  A    between atoms: _363  and  _365
REMARK  151  A    between atoms: _365  and  _366
REMARK  152  A    between atoms: _365  and  _368
REMARK  153  A    between atoms: _368  and  _369
REMARK  154  A    between atoms: _369  and  _370
REMARK  155  A    between atoms: _372  and  _374
REMARK  156  A    between atoms: _374  and  _375
REMARK  157  A    between atoms: _374  and  _377
REMARK  158  A    between atoms: _377  and  _378
REMARK  159  A    between atoms: _381  and  _383
REMARK  160  A    between atoms: _383  and  _384
REMARK  161  A    between atoms: _386  and  _388
REMARK  162  A    between atoms: _388  and  _389
REMARK  163  A    between atoms: _391  and  _393
REMARK  164  A    between atoms: _393  and  _394
REMARK  165  A    between atoms: _393  and  _396
REMARK  166  A    between atoms: _396  and  _397
REMARK  167  A    between atoms: _400  and  _402
REMARK  168  A    between atoms: _402  and  _403
REMARK  169  A    between atoms: _405  and  _407
REMARK  170  A    between atoms: _407  and  _408
REMARK  171  A    between atoms: _410  and  _412
REMARK  172  A    between atoms: _412  and  _413
REMARK  173  A    between atoms: _412  and  _415
REMARK  174  A    between atoms: _415  and  _416
REMARK  175  A    between atoms: _419  and  _421
REMARK  176  A    between atoms: _421  and  _422
REMARK  177  A    between atoms: _421  and  _424
REMARK  178  A    between atoms: _427  and  _429
REMARK  179  A    between atoms: _429  and  _430
REMARK  180  A    between atoms: _429  and  _432
REMARK  181  A    between atoms: _432  and  _433
REMARK  182  A    between atoms: _437  and  _438
REMARK  183  A    between atoms: _443  and  _445
REMARK  184  A    between atoms: _445  and  _446
REMARK  185  A    between atoms: _445  and  _448
REMARK  186  A    between atoms: _448  and  _449
REMARK  187  A    between atoms: _453  and  _454
REMARK  188  A    between atoms: _459  and  _461
REMARK  189  A    between atoms: _461  and  _462
REMARK  190  A    between atoms: _461  and  _464
REMARK  191  A    between atoms: _464  and  _465
REMARK  192  A    between atoms: _468  and  _470
REMARK  193  A    between atoms: _470  and  _471
REMARK  194  A    between atoms: _470  and  _473
REMARK  195  A    between atoms: _473  and  _474
REMARK  196  A    between atoms: _479  and  _481
REMARK  197  A    between atoms: _481  and  _482
REMARK  198  A    between atoms: _481  and  _484
REMARK  199  A    between atoms: _487  and  _489
REMARK  200  A    between atoms: _489  and  _490
REMARK  201  A    between atoms: _489  and  _492
REMARK  202  A    between atoms: _492  and  _493
REMARK  203  A    between atoms: _496  and  _498
REMARK  204  A    between atoms: _498  and  _499
REMARK  205  A    between atoms: _501  and  _503
REMARK  206  A    between atoms: _503  and  _504
REMARK  207  A    between atoms: _503  and  _506
REMARK  208  A    between atoms: _506  and  _507
REMARK  209  A    between atoms: _507  and  _508
REMARK  210  A    between atoms: _508  and  _509
REMARK  211  A    between atoms: _518  and  _520
REMARK  212  A    between atoms: _520  and  _521
REMARK  213  A    between atoms: _520  and  _523
REMARK  214  A    between atoms: _523  and  _524
REMARK                            x       y       z     vdW  Elec       q    Type
REMARK                         _______ _______ _______ _____ _____    ______ ____
ROOT
ATOM      1  CA  LEU A   1      -8.034   1.051  10.291  0.00  0.00    +0.133 C 
ENDROOT
BRANCH   1   2
ATOM      2  N   LEU A   1      -8.306   1.961  11.385  0.00  0.00    -0.239 NA
ATOM      3  H   LEU A   1      -7.565   2.127  12.096  0.00  0.00    +0.142 HD
ENDBRANCH   1   2
BRANCH   1   4
ATOM      4  C   LEU A   1      -8.233  -0.373  10.805  0.00  0.00    +0.224 C 
ATOM      5  O   LEU A   1      -7.744  -0.731  11.878  0.00  0.00    -0.287 OA
ENDBRANCH   1   4
BRANCH   1   6
ATOM      6  CB  LEU A   1      -6.592   1.233   9.809  0.00  0.00    +0.025 C 
BRANCH   6   7
ATOM      7  CG  LEU A   1      -6.150   2.658   9.434  0.00  0.00    +0.002 C 
ATOM      8  CD2 LEU A   1      -4.677   2.671   9.013  0.00  0.00    +0.000 C 
ATOM      9  CD1 LEU A   1      -7.021   3.185   8.308  0.00  0.00    +0.000 C 
ENDBRANCH   6   7
ENDBRANCH   1   6
TORSDOF 4
REMARK  Name = ../refined-set-2016/1t7j/1t7j_pocket.pdb
REMARK  214 active torsions:
REMARK  status: ('A' for Active; 'I' for Inactive)
REMARK    1  A    between atoms: _1  and  _3
REMARK    2  A    between atoms: _3  and  _4
REMARK    3  A    between atoms: _3  and  _6
REMARK    4  A    between atoms: _6  and  _7
REMARK    5  A    between atoms: _7  and  _8
REMARK    6  A    between atoms: _8  and  _9
REMARK    7  A    between atoms: _18  and  _20
REMARK    8  A    between atoms: _20  and  _21
REMARK    9  A    between atoms: _20  and  _23
REMARK   10  A    between atoms: _23  and  _24
REMARK   11  A    between atoms: _27  and  _29
REMARK   12  A    between atoms: _29  and  _30
REMARK   13  A    between atoms: _29  and  _32
REMARK   14  A    between atoms: _32  and  _33
REMARK   15  A    between atoms: _36  and  _38
REMARK   16  A    between atoms: _38  and  _39
REMARK   17  A    between atoms: _38  and  _41
REMARK   18  A    between atoms: _41  and  _42
REMARK   19  A    between atoms: _45  and  _47
REMARK   20  A    between atoms: _47  and  _48
REMARK   21  A    between atoms: _47  and  _50
REMARK   22  A    between atoms: _50  and  _51
REMARK   23  A    between atoms: _54  and  _56
REMARK   24  A    between atoms: _56  and  _57
REMARK   25  A    between atoms: _59  and  _61
REMARK   26  A    between atoms: _61  and  _62
REMARK   27  A    between atoms: _65  and  _67
REMARK   28  A    between atoms: _67  and  _68
REMARK   29  A    between atoms: _67  and  _70
REMARK   30  A    between atoms: _70  and  _71
REMARK   31  A    between atoms: _74  and  _76
REMARK   32  A    between atoms: _76  and  _77
REMARK   33  A    between atoms: _76  and  _79
REMARK   34  A    between atoms: _79  and  _80
REMARK   35  A    between atoms: _83  and  _85
REMARK   36  A    between atoms: _85  and  _86
REMARK   37  A    between atoms: _85  and  _88
REMARK   38  A    between atoms: _88  and  _89
REMARK   39  A    between atoms: _92  and  _94
REMARK   40  A    between atoms: _94  and  _95
REMARK   41  A    between atoms: _94  and  _97
REMARK   42  A    between atoms: _100  and  _102
REMARK   43  A    between atoms: _102  and  _103
REMARK   44  A    between atoms: _102  and  _105
REMARK   45  A    between atoms: _105  and  _106
REMARK   46  A    between atoms: _109  and  _111
REMARK   47  A    between atoms: _111  and  _112
REMARK   48  A    between atoms: _114  and  _116
REMARK   49  A    between atoms: _116  and  _117
REMARK   50  A    between atoms: _119  and  _121
REMARK   51  A    between atoms: _121  and  _122
REMARK   52  A    between atoms: _121  and  _124
REMARK   53  A    between atoms: _124  and  _125
REMARK   54  A    between atoms: _128  and  _130
REMARK   55  A    between atoms: _130  and  _131
REMARK   56  A    between atoms: _133  and  _135
REMARK   57  A    between atoms: _135  and  _136
REMARK   58  A    between atoms: _138  and  _140
REMARK   59  A    between atoms: _140  and  _141
REMARK   60  A    between atoms: _140  and  _143
REMARK   61  A    between atoms: _143  and  _144
REMARK   62  A    between atoms: _147  and  _149
REMARK   63  A    between atoms: _149  and  _150
REMARK   64  A    between atoms: _149  and  _152
REMARK   65  A    between atoms: _152  and  _153
REMARK   66  A    between atoms: _156  and  _158
REMARK   67  A    between atoms: _158  and  _159
REMARK   68  A    between atoms: _158  and  _161
REMARK   69  A    between atoms: _161  and  _162
REMARK   70  A    between atoms: _166  and  _167
REMARK   71  A    between atoms: _172  and  _174
REMARK   72  A    between atoms: _174  and  _175
REMARK   73  A    between atoms: _174  and  _177
REMARK   74  A    between atoms: _177  and  _178
REMARK   75  A    between atoms: _181  and  _183
REMARK   76  A    between atoms: _183  and  _184
REMARK   77  A    between atoms: _183  and  _186
REMARK   78  A    between atoms: _186  and  _187
REMARK   79  A    between atoms: _192  and  _194
REMARK   80  A    between atoms: _194  and  _195
REMARK   81  A    between atoms: _194  and  _197
REMARK   82  A    between atoms: _200  and  _202
REMARK   83  A    between atoms: _202  and  _203
REMARK   84  A    between atoms: _202  and  _205
REMARK   85  A    between atoms: _205  and  _206
REMARK   86  A    between atoms: _209  and  _211
REMARK   87  A    between atoms: _211  and  _212
REMARK   88  A    between atoms: _214  and  _216
REMARK   89  A    between atoms: _216  and  _217
REMARK   90  A    between atoms: _216  and  _219
REMARK   91  A    between atoms: _219  and  _220
REMARK   92  A    between atoms: _220  and  _221
REMARK   93  A    between atoms: _221  and  _222
REMARK   94  A    between atoms: _231  and  _233
REMARK   95  A    between atoms: _233  and  _234
REMARK   96  A    between atoms: _233  and  _236
REMARK   97  A    between atoms: _236  and  _237
REMARK   98  A    between atoms: _242  and  _244
REMARK   99  A    between atoms: _244  and  _245
REMARK  100  A    between atoms: _244  and  _247
REMARK  101  A    between atoms: _247  and  _248
REMARK  102  A    between atoms: _248  and  _249
REMARK  103  A    between atoms: _249  and  _250
REMARK  104  A    between atoms: _259  and  _261
REMARK  105  A    between atoms: _261  and  _262
REMARK  106  A    between atoms: _261  and  _264
REMARK  107  A    between atoms: _264  and  _265
REMARK  108  A    between atoms: _268  and  _270
REMARK  109  A    between atoms: _270  and  _271
REMARK  110  A    between atoms: _270  and  _273
REMARK  111  A    between atoms: _273  and  _274
REMARK  112  A    between atoms: _277  and  _279
REMARK  113  A    between atoms: _279  and  _280
REMARK  114  A    between atoms: _279  and  _282
REMARK  115  A    between atoms: _282  and  _283
REMARK  116  A    between atoms: _286  and  _288
REMARK  117  A    between atoms: _288  and  _289
REMARK  118  A    between atoms: _288  and  _291
REMARK  119  A    between atoms: _291  and  _292
REMARK  120  A    between atoms: _295  and  _297
REMARK  121  A    between atoms: _297  and  _298
REMARK  122  A    between atoms: _300  and  _302
REMARK  123  A    between atoms: _302  and  _303
REMARK  124  A    between atoms: _306  and  _308
REMARK  125  A    between atoms: _308  and  _309
REMARK  126  A    between atoms: _308  and  _311
REMARK  127  A    between atoms: _311  and  _312
REMARK  128  A    between atoms: _315  and  _317
REMARK  129  A    between atoms: _317  and  _318
REMARK  130  A    between atoms: _317  and  _320
REMARK  131  A    between atoms: _320  and  _321
REMARK  132  A    between atoms: _324  and  _326
REMARK  133  A    between atoms: _326  and  _327
REMARK  134  A    between atoms: _326  and  _329
REMARK  135  A    between atoms: _329  and  _330
REMARK  136  A    between atoms: _333  and  _335
REMARK  137  A    between atoms: _335  and  _336
REMARK  138  A    between atoms: _335  and  _338
REMARK  139  A    between atoms: _341  and  _343
REMARK  140  A    between atoms: _343  and  _344
REMARK  141  A    between atoms: _343  and  _346
REMARK  142  A    between atoms: _346  and  _347
REMARK  143  A    between atoms: _350  and  _352
REMARK  144  A    between atoms: _352  and  _353
REMARK  145  A    between atoms: _352  and  _355
REMARK  146  A    between atoms: _355  and  _356
REMARK  147  A    between atoms: _356  and  _357
REMARK  148  A    between atoms: _357  and  _358
REMARK  149  A    between atoms: _358  and  _359
REMARK  150  A    between atoms: _363  and  _365
REMARK  151  A    between atoms: _365  and  _366
REMARK  152  A    between atoms: _365  and  _368
REMARK  153  A    between atoms: _368  and  _369
REMARK  154  A    between atoms: _369  and  _370
REMARK  155  A    between atoms: _372  and  _374
REMARK  156  A    between atoms: _374  and  _375
REMARK  157  A    between atoms: _374  and  _377
REMARK  158  A    between atoms: _377  and  _378
REMARK  159  A    between atoms: _381  and  _383
REMARK  160  A    between atoms: _383  and  _384
REMARK  161  A    between atoms: _386  and  _388
REMARK  162  A    between atoms: _388  and  _389
REMARK  163  A    between atoms: _391  and  _393
REMARK  164  A    between atoms: _393  and  _394
REMARK  165  A    between atoms: _393  and  _396
REMARK  166  A    between atoms: _396  and  _397
REMARK  167  A    between atoms: _400  and  _402
REMARK  168  A    between atoms: _402  and  _403
REMARK  169  A    between atoms: _405  and  _407
REMARK  170  A    between atoms: _407  and  _408
REMARK  171  A    between atoms: _410  and  _412
REMARK  172  A    between atoms: _412  and  _413
REMARK  173  A    between atoms: _412  and  _415
REMARK  174  A    between atoms: _415  and  _416
REMARK  175  A    between atoms: _419  and  _421
REMARK  176  A    between atoms: _421  and  _422
REMARK  177  A    between atoms: _421  and  _424
REMARK  178  A    between atoms: _427  and  _429
REMARK  179  A    between atoms: _429  and  _430
REMARK  180  A    between atoms: _429  and  _432
REMARK  181  A    between atoms: _432  and  _433
REMARK  182  A    between atoms: _437  and  _438
REMARK  183  A    between atoms: _443  and  _445
REMARK  184  A    between atoms: _445  and  _446
REMARK  185  A    between atoms: _445  and  _448
REMARK  186  A    between atoms: _448  and  _449
REMARK  187  A    between atoms: _453  and  _454
REMARK  188  A    between atoms: _459  and  _461
REMARK  189  A    between atoms: _461  and  _462
REMARK  190  A    between atoms: _461  and  _464
REMARK  191  A    between atoms: _464  and  _465
REMARK  192  A    between atoms: _468  and  _470
REMARK  193  A    between atoms: _470  and  _471
REMARK  194  A    between atoms: _470  and  _473
REMARK  195  A    between atoms: _473  and  _474
REMARK  196  A    between atoms: _479  and  _481
REMARK  197  A    between atoms: _481  and  _482
REMARK  198  A    between atoms: _481  and  _484
REMARK  199  A    between atoms: _487  and  _489
REMARK  200  A    between atoms: _489  and  _490
REMARK  201  A    between atoms: _489  and  _492
REMARK  202  A    between atoms: _492  and  _493
REMARK  203  A    between atoms: _496  and  _498
REMARK  204  A    between atoms: _498  and  _499
REMARK  205  A    between atoms: _501  and  _503
REMARK  206  A    between atoms: _503  and  _504
REMARK  207  A    between atoms: _503  and  _506
REMARK  208  A    between atoms: _506  and  _507
REMARK  209  A    between atoms: _507  and  _508
REMARK  210  A    between atoms: _508  and  _509
REMARK  211  A    between atoms: _518  and  _520
REMARK  212  A    between atoms: _520  and  _521
REMARK  213  A    between atoms: _520  and  _523
REMARK  214  A    between atoms: _523  and  _524
REMARK                            x       y       z     vdW  Elec       q    Type
REMARK                         _______ _______ _______ _____ _____    ______ ____
ROOT
ATOM      1  C   VAL A   5      -3.244   0.391  18.140  0.00  0.00    +0.241 C 
ATOM      2  N   ILE A   6      -3.041   1.176  19.189  0.00  0.00    -0.297 N 
ATOM      3  H   ILE A   6      -2.509   0.810  20.004  0.00  0.00    +0.150 HD
ATOM      4  O   VAL A   5      -3.896   0.738  17.157  0.00  0.00    -0.273 OA
ENDROOT
BRANCH   1   5
ATOM      5  CA  VAL A   5      -2.630  -0.996  18.241  0.00  0.00    +0.149 C 
BRANCH   5   8
ATOM      6  C   ASN A   4      -3.672  -3.142  18.566  0.00  0.00    +0.241 C 
ATOM      7  O   ASN A   4      -3.053  -3.308  19.615  0.00  0.00    -0.273 OA
ATOM      8  N   VAL A   5      -3.527  -2.056  17.810  0.00  0.00    -0.297 N 
ATOM      9  H   VAL A   5      -4.052  -1.966  16.917  0.00  0.00    +0.150 HD
BRANCH   6  10
ATOM     10  CA  ASN A   4      -4.641  -4.205  18.077  0.00  0.00    +0.158 C 
BRANCH  10  12
ATOM     11  C   THR A   3      -3.018  -5.798  17.227  0.00  0.00    +0.243 C 
ATOM     12  N   ASN A   4      -3.989  -5.502  18.085  0.00  0.00    -0.297 N 
ATOM     13  H   ASN A   4      -4.289  -6.217  18.779  0.00  0.00    +0.150 HD
ATOM     14  O   THR A   3      -2.628  -5.012  16.361  0.00  0.00    -0.273 OA
BRANCH  11  15
ATOM     15  CA  THR A   3      -2.408  -7.194  17.352  0.00  0.00    +0.176 C 
BRANCH  15  18
ATOM     16  C   PRO A   2      -1.362  -8.859  15.936  0.00  0.00    +0.241 C 
ATOM     17  O   PRO A   2      -1.361  -9.691  16.839  0.00  0.00    -0.273 OA
ATOM     18  N   THR A   3      -1.854  -7.635  16.082  0.00  0.00    -0.295 N 
ATOM     19  H   THR A   3      -1.843  -6.980  15.274  0.00  0.00    +0.150 HD
BRANCH  16  22
ATOM     20  C   THR A   1      -2.317  -7.925  13.141  0.00  0.00    +0.244 C 
ATOM     21  N   PRO A   2      -1.067  -8.141  13.580  0.00  0.00    -0.272 N 
ATOM     22  CA  PRO A   2      -0.793  -9.191  14.570  0.00  0.00    +0.152 C 
ATOM     23  CB  PRO A   2       0.731  -9.263  14.588  0.00  0.00    +0.031 C 
ATOM     24  CG  PRO A   2       1.143  -7.845  14.264  0.00  0.00    +0.024 C 
ATOM     25  CD  PRO A   2       0.183  -7.493  13.136  0.00  0.00    +0.094 C 
ATOM     26  O   THR A   1      -3.266  -8.607  13.524  0.00  0.00    -0.273 OA
BRANCH  20  27
ATOM     27  CA  THR A   1      -2.526  -6.813  12.113  0.00  0.00    +0.172 C 
BRANCH  27  28
ATOM     28  CB  THR A   1      -2.897  -5.498  12.841  0.00  0.00    +0.135 C 
ATOM     29  CG2 THR A   1      -4.224  -5.642  13.611  0.00  0.00    +0.034 C 
BRANCH  28  30
ATOM     30  OG1 THR A   1      -1.852  -5.156  13.756  0.00  0.00    -0.383 OA
ATOM     31  HG1 THR A   1      -1.744  -5.884  14.418  0.00  0.00    +0.210 HD
ENDBRANCH  28  30
ENDBRANCH  27  28
BRANCH  27  32
ATOM     32  N   THR A   1      -3.607  -7.279  11.262  0.00  0.00    -0.236 NA
ATOM     33  H   THR A   1      -4.580  -7.270  11.629  0.00  0.00    +0.142 HD
ENDBRANCH  27  32
ENDBRANCH  20  27
ENDBRANCH  16  22
ENDBRANCH  15  18
BRANCH  15  34
ATOM     34  CB  THR A   3      -1.310  -7.177  18.443  0.00  0.00    +0.137 C 
ATOM     35  CG2 THR A   3      -0.251  -6.157  18.107  0.00  0.00    +0.034 C 
BRANCH  34  36
ATOM     36  OG1 THR A   3      -1.891  -6.845  19.711  0.00  0.00    -0.382 OA
ATOM     37  HG1 THR A   3      -1.184  -6.836  20.404  0.00  0.00    +0.210 HD
ENDBRANCH  34  36
ENDBRANCH  15  34
ENDBRANCH  11  15
ENDBRANCH  10  12
BRANCH  10  38
ATOM     38  CB  ASN A   4      -5.867  -4.218  18.994  0.00  0.00    +0.114 C 
BRANCH  38  39
ATOM     39  CG  ASN A   4      -6.924  -5.209  18.542  0.00  0.00    +0.222 C 
ATOM     40  ND2 ASN A   4      -7.453  -5.988  19.482  0.00  0.00    -0.329 N 
ATOM     41 HD21 ASN A   4      -7.131  -5.906  20.467  0.00  0.00    +0.145 HD
ATOM     42 HD22 ASN A   4      -8.188  -6.679  19.231  0.00  0.00    +0.145 HD
ATOM     43  OD1 ASN A   4      -7.268  -5.265  17.362  0.00  0.00    -0.275 OA
ENDBRANCH  38  39
ENDBRANCH  10  38
ENDBRANCH   6  10
ENDBRANCH   5   8
BRANCH   5  44
ATOM     44  CB  VAL A   5      -1.279  -1.000  17.457  0.00  0.00    +0.027 C 
ATOM     45  CG2 VAL A   5      -0.677  -2.382  17.498  0.00  0.00    +0.002 C 
ATOM     46  CG1 VAL A   5      -1.475  -0.508  16.022  0.00  0.00    +0.002 C 
ENDBRANCH   5  44
ENDBRANCH   1   5
BRANCH   2  47
ATOM     47  CA  ILE A   6      -3.544   2.530  19.222  0.00  0.00    +0.149 C 
BRANCH  47  48
ATOM     48  C   ILE A   6      -2.368   3.405  18.800  0.00  0.00    +0.241 C 
ATOM     49  O   ILE A   6      -1.326   3.420  19.472  0.00  0.00    -0.273 OA
ATOM     50  N   GLY A   7      -2.527   4.116  17.685  0.00  0.00    -0.295 N 
ATOM     51  H   GLY A   7      -3.421   4.061  17.157  0.00  0.00    +0.150 HD
BRANCH  50  52
ATOM     52  CA  GLY A   7      -1.453   4.968  17.206  0.00  0.00    +0.176 C 
BRANCH  52  53
ATOM     53  C   GLY A   7      -1.537   6.414  17.650  0.00  0.00    +0.243 C 
ATOM     54  O   GLY A   7      -2.450   6.811  18.375  0.00  0.00    -0.273 OA
ATOM     55  N   ARG A   8      -0.575   7.210  17.198  0.00  0.00    -0.297 N 
ATOM     56  H   ARG A   8       0.160   6.812  16.580  0.00  0.00    +0.150 HD
BRANCH  55  57
ATOM     57  CA  ARG A   8      -0.519   8.623  17.542  0.00  0.00    +0.149 C 
BRANCH  57  58
ATOM     58  C   ARG A   8      -1.800   9.412  17.241  0.00  0.00    +0.241 C 
ATOM     59  O   ARG A   8      -2.128  10.350  17.974  0.00  0.00    -0.273 OA
ATOM     60  N   ASN A   9      -2.528   9.046  16.189  0.00  0.00    -0.298 N 
ATOM     61  H   ASN A   9      -2.224   8.240  15.607  0.00  0.00    +0.150 HD
BRANCH  60  62
ATOM     62  CA  ASN A   9      -3.759   9.773  15.843  0.00  0.00    +0.146 C 
BRANCH  62  63
ATOM     63  C   ASN A   9      -4.770   9.830  16.999  0.00  0.00    +0.227 C 
ATOM     64  O   ASN A   9      -5.496  10.816  17.142  0.00  0.00    -0.286 OA
ENDBRANCH  62  63
BRANCH  62  65
ATOM     65  CB  ASN A   9      -4.424   9.174  14.586  0.00  0.00    +0.112 C 
BRANCH  65  66
ATOM     66  CG  ASN A   9      -5.006   7.786  14.821  0.00  0.00    +0.222 C 
ATOM     67  OD1 ASN A   9      -4.308   6.864  15.239  0.00  0.00    -0.275 OA
ATOM     68  ND2 ASN A   9      -6.295   7.636  14.544  0.00  0.00    -0.329 N 
ATOM     69 HD21 ASN A   9      -6.752   6.711  14.679  0.00  0.00    +0.145 HD
ATOM     70 HD22 ASN A   9      -6.849   8.443  14.192  0.00  0.00    +0.145 HD
ENDBRANCH  65  66
ENDBRANCH  62  65
ENDBRANCH  60  62
ENDBRANCH  57  58
BRANCH  57  71
ATOM     71  CB  ARG A   8       0.688   9.284  16.850  0.00  0.00    +0.033 C 
BRANCH  71  72
ATOM     72  CG  ARG A   8       2.040   8.686  17.286  0.00  0.00    +0.045 C 
BRANCH  72  73
ATOM     73  CD  ARG A   8       3.236   9.458  16.745  0.00  0.00    +0.174 C 
BRANCH  73  74
ATOM     74  NE  ARG A   8       3.261   9.440  15.285  0.00  0.00    -0.265 N 
ATOM     75  HE  ARG A   8       3.675   8.608  14.819  0.00  0.00    +0.259 HD
ATOM     76  CZ  ARG A   8       2.791  10.413  14.509  0.00  0.00    +0.342 C 
ATOM     77  NH2 ARG A   8       2.264  11.507  15.040  0.00  0.00    -0.292 N 
ATOM     78 HH21 ARG A   8       2.215  11.612  16.074  0.00  0.00    +0.255 HD
ATOM     79 HH22 ARG A   8       1.900  12.261  14.423  0.00  0.00    +0.255 HD
ATOM     80  NH1 ARG A   8       2.822  10.276  13.192  0.00  0.00    -0.292 N 
ATOM     81 HH11 ARG A   8       3.213   9.410  12.768  0.00  0.00    +0.255 HD
ATOM     82 HH12 ARG A   8       2.456  11.034  12.582  0.00  0.00    +0.255 HD
ENDBRANCH  73  74
ENDBRANCH  72  73
ENDBRANCH  71  72
ENDBRANCH  57  71
ENDBRANCH  55  57
ENDBRANCH  52  53
ENDBRANCH  50  52
ENDBRANCH  47  48
BRANCH  47  83
ATOM     83  CB  ILE A   6      -3.998   2.922  20.638  0.00  0.00    +0.027 C 
ATOM     84  CG2 ILE A   6      -4.656   4.277  20.604  0.00  0.00    +0.002 C 
BRANCH  83  85
ATOM     85  CG1 ILE A   6      -4.984   1.889  21.181  0.00  0.00    +0.002 C 
ATOM     86  CD1 ILE A   6      -6.240   1.735  20.338  0.00  0.00    +0.000 C 
ENDBRANCH  83  85
ENDBRANCH  47  83
ENDBRANCH   2  47
TORSDOF 32
REMARK  Name = ../refined-set-2016/1t7j/1t7j_pocket.pdb
REMARK  214 active torsions:
REMARK  status: ('A' for Active; 'I' for Inactive)
REMARK    1  A    between atoms: _1  and  _3
REMARK    2  A    between atoms: _3  and  _4
REMARK    3  A    between atoms: _3  and  _6
REMARK    4  A    between atoms: _6  and  _7
REMARK    5  A    between atoms: _7  and  _8
REMARK    6  A    between atoms: _8  and  _9
REMARK    7  A    between atoms: _18  and  _20
REMARK    8  A    between atoms: _20  and  _21
REMARK    9  A    between atoms: _20  and  _23
REMARK   10  A    between atoms: _23  and  _24
REMARK   11  A    between atoms: _27  and  _29
REMARK   12  A    between atoms: _29  and  _30
REMARK   13  A    between atoms: _29  and  _32
REMARK   14  A    between atoms: _32  and  _33
REMARK   15  A    between atoms: _36  and  _38
REMARK   16  A    between atoms: _38  and  _39
REMARK   17  A    between atoms: _38  and  _41
REMARK   18  A    between atoms: _41  and  _42
REMARK   19  A    between atoms: _45  and  _47
REMARK   20  A    between atoms: _47  and  _48
REMARK   21  A    between atoms: _47  and  _50
REMARK   22  A    between atoms: _50  and  _51
REMARK   23  A    between atoms: _54  and  _56
REMARK   24  A    between atoms: _56  and  _57
REMARK   25  A    between atoms: _59  and  _61
REMARK   26  A    between atoms: _61  and  _62
REMARK   27  A    between atoms: _65  and  _67
REMARK   28  A    between atoms: _67  and  _68
REMARK   29  A    between atoms: _67  and  _70
REMARK   30  A    between atoms: _70  and  _71
REMARK   31  A    between atoms: _74  and  _76
REMARK   32  A    between atoms: _76  and  _77
REMARK   33  A    between atoms: _76  and  _79
REMARK   34  A    between atoms: _79  and  _80
REMARK   35  A    between atoms: _83  and  _85
REMARK   36  A    between atoms: _85  and  _86
REMARK   37  A    between atoms: _85  and  _88
REMARK   38  A    between atoms: _88  and  _89
REMARK   39  A    between atoms: _92  and  _94
REMARK   40  A    between atoms: _94  and  _95
REMARK   41  A    between atoms: _94  and  _97
REMARK   42  A    between atoms: _100  and  _102
REMARK   43  A    between atoms: _102  and  _103
REMARK   44  A    between atoms: _102  and  _105
REMARK   45  A    between atoms: _105  and  _106
REMARK   46  A    between atoms: _109  and  _111
REMARK   47  A    between atoms: _111  and  _112
REMARK   48  A    between atoms: _114  and  _116
REMARK   49  A    between atoms: _116  and  _117
REMARK   50  A    between atoms: _119  and  _121
REMARK   51  A    between atoms: _121  and  _122
REMARK   52  A    between atoms: _121  and  _124
REMARK   53  A    between atoms: _124  and  _125
REMARK   54  A    between atoms: _128  and  _130
REMARK   55  A    between atoms: _130  and  _131
REMARK   56  A    between atoms: _133  and  _135
REMARK   57  A    between atoms: _135  and  _136
REMARK   58  A    between atoms: _138  and  _140
REMARK   59  A    between atoms: _140  and  _141
REMARK   60  A    between atoms: _140  and  _143
REMARK   61  A    between atoms: _143  and  _144
REMARK   62  A    between atoms: _147  and  _149
REMARK   63  A    between atoms: _149  and  _150
REMARK   64  A    between atoms: _149  and  _152
REMARK   65  A    between atoms: _152  and  _153
REMARK   66  A    between atoms: _156  and  _158
REMARK   67  A    between atoms: _158  and  _159
REMARK   68  A    between atoms: _158  and  _161
REMARK   69  A    between atoms: _161  and  _162
REMARK   70  A    between atoms: _166  and  _167
REMARK   71  A    between atoms: _172  and  _174
REMARK   72  A    between atoms: _174  and  _175
REMARK   73  A    between atoms: _174  and  _177
REMARK   74  A    between atoms: _177  and  _178
REMARK   75  A    between atoms: _181  and  _183
REMARK   76  A    between atoms: _183  and  _184
REMARK   77  A    between atoms: _183  and  _186
REMARK   78  A    between atoms: _186  and  _187
REMARK   79  A    between atoms: _192  and  _194
REMARK   80  A    between atoms: _194  and  _195
REMARK   81  A    between atoms: _194  and  _197
REMARK   82  A    between atoms: _200  and  _202
REMARK   83  A    between atoms: _202  and  _203
REMARK   84  A    between atoms: _202  and  _205
REMARK   85  A    between atoms: _205  and  _206
REMARK   86  A    between atoms: _209  and  _211
REMARK   87  A    between atoms: _211  and  _212
REMARK   88  A    between atoms: _214  and  _216
REMARK   89  A    between atoms: _216  and  _217
REMARK   90  A    between atoms: _216  and  _219
REMARK   91  A    between atoms: _219  and  _220
REMARK   92  A    between atoms: _220  and  _221
REMARK   93  A    between atoms: _221  and  _222
REMARK   94  A    between atoms: _231  and  _233
REMARK   95  A    between atoms: _233  and  _234
REMARK   96  A    between atoms: _233  and  _236
REMARK   97  A    between atoms: _236  and  _237
REMARK   98  A    between atoms: _242  and  _244
REMARK   99  A    between atoms: _244  and  _245
REMARK  100  A    between atoms: _244  and  _247
REMARK  101  A    between atoms: _247  and  _248
REMARK  102  A    between atoms: _248  and  _249
REMARK  103  A    between atoms: _249  and  _250
REMARK  104  A    between atoms: _259  and  _261
REMARK  105  A    between atoms: _261  and  _262
REMARK  106  A    between atoms: _261  and  _264
REMARK  107  A    between atoms: _264  and  _265
REMARK  108  A    between atoms: _268  and  _270
REMARK  109  A    between atoms: _270  and  _271
REMARK  110  A    between atoms: _270  and  _273
REMARK  111  A    between atoms: _273  and  _274
REMARK  112  A    between atoms: _277  and  _279
REMARK  113  A    between atoms: _279  and  _280
REMARK  114  A    between atoms: _279  and  _282
REMARK  115  A    between atoms: _282  and  _283
REMARK  116  A    between atoms: _286  and  _288
REMARK  117  A    between atoms: _288  and  _289
REMARK  118  A    between atoms: _288  and  _291
REMARK  119  A    between atoms: _291  and  _292
REMARK  120  A    between atoms: _295  and  _297
REMARK  121  A    between atoms: _297  and  _298
REMARK  122  A    between atoms: _300  and  _302
REMARK  123  A    between atoms: _302  and  _303
REMARK  124  A    between atoms: _306  and  _308
REMARK  125  A    between atoms: _308  and  _309
REMARK  126  A    between atoms: _308  and  _311
REMARK  127  A    between atoms: _311  and  _312
REMARK  128  A    between atoms: _315  and  _317
REMARK  129  A    between atoms: _317  and  _318
REMARK  130  A    between atoms: _317  and  _320
REMARK  131  A    between atoms: _320  and  _321
REMARK  132  A    between atoms: _324  and  _326
REMARK  133  A    between atoms: _326  and  _327
REMARK  134  A    between atoms: _326  and  _329
REMARK  135  A    between atoms: _329  and  _330
REMARK  136  A    between atoms: _333  and  _335
REMARK  137  A    between atoms: _335  and  _336
REMARK  138  A    between atoms: _335  and  _338
REMARK  139  A    between atoms: _341  and  _343
REMARK  140  A    between atoms: _343  and  _344
REMARK  141  A    between atoms: _343  and  _346
REMARK  142  A    between atoms: _346  and  _347
REMARK  143  A    between atoms: _350  and  _352
REMARK  144  A    between atoms: _352  and  _353
REMARK  145  A    between atoms: _352  and  _355
REMARK  146  A    between atoms: _355  and  _356
REMARK  147  A    between atoms: _356  and  _357
REMARK  148  A    between atoms: _357  and  _358
REMARK  149  A    between atoms: _358  and  _359
REMARK  150  A    between atoms: _363  and  _365
REMARK  151  A    between atoms: _365  and  _366
REMARK  152  A    between atoms: _365  and  _368
REMARK  153  A    between atoms: _368  and  _369
REMARK  154  A    between atoms: _369  and  _370
REMARK  155  A    between atoms: _372  and  _374
REMARK  156  A    between atoms: _374  and  _375
REMARK  157  A    between atoms: _374  and  _377
REMARK  158  A    between atoms: _377  and  _378
REMARK  159  A    between atoms: _381  and  _383
REMARK  160  A    between atoms: _383  and  _384
REMARK  161  A    between atoms: _386  and  _388
REMARK  162  A    between atoms: _388  and  _389
REMARK  163  A    between atoms: _391  and  _393
REMARK  164  A    between atoms: _393  and  _394
REMARK  165  A    between atoms: _393  and  _396
REMARK  166  A    between atoms: _396  and  _397
REMARK  167  A    between atoms: _400  and  _402
REMARK  168  A    between atoms: _402  and  _403
REMARK  169  A    between atoms: _405  and  _407
REMARK  170  A    between atoms: _407  and  _408
REMARK  171  A    between atoms: _410  and  _412
REMARK  172  A    between atoms: _412  and  _413
REMARK  173  A    between atoms: _412  and  _415
REMARK  174  A    between atoms: _415  and  _416
REMARK  175  A    between atoms: _419  and  _421
REMARK  176  A    between atoms: _421  and  _422
REMARK  177  A    between atoms: _421  and  _424
REMARK  178  A    between atoms: _427  and  _429
REMARK  179  A    between atoms: _429  and  _430
REMARK  180  A    between atoms: _429  and  _432
REMARK  181  A    between atoms: _432  and  _433
REMARK  182  A    between atoms: _437  and  _438
REMARK  183  A    between atoms: _443  and  _445
REMARK  184  A    between atoms: _445  and  _446
REMARK  185  A    between atoms: _445  and  _448
REMARK  186  A    between atoms: _448  and  _449
REMARK  187  A    between atoms: _453  and  _454
REMARK  188  A    between atoms: _459  and  _461
REMARK  189  A    between atoms: _461  and  _462
REMARK  190  A    between atoms: _461  and  _464
REMARK  191  A    between atoms: _464  and  _465
REMARK  192  A    between atoms: _468  and  _470
REMARK  193  A    between atoms: _470  and  _471
REMARK  194  A    between atoms: _470  and  _473
REMARK  195  A    between atoms: _473  and  _474
REMARK  196  A    between atoms: _479  and  _481
REMARK  197  A    between atoms: _481  and  _482
REMARK  198  A    between atoms: _481  and  _484
REMARK  199  A    between atoms: _487  and  _489
REMARK  200  A    between atoms: _489  and  _490
REMARK  201  A    between atoms: _489  and  _492
REMARK  202  A    between atoms: _492  and  _493
REMARK  203  A    between atoms: _496  and  _498
REMARK  204  A    between atoms: _498  and  _499
REMARK  205  A    between atoms: _501  and  _503
REMARK  206  A    between atoms: _503  and  _504
REMARK  207  A    between atoms: _503  and  _506
REMARK  208  A    between atoms: _506  and  _507
REMARK  209  A    between atoms: _507  and  _508
REMARK  210  A    between atoms: _508  and  _509
REMARK  211  A    between atoms: _518  and  _520
REMARK  212  A    between atoms: _520  and  _521
REMARK  213  A    between atoms: _520  and  _523
REMARK  214  A    between atoms: _523  and  _524
REMARK                            x       y       z     vdW  Elec       q    Type
REMARK                         _______ _______ _______ _____ _____    ______ ____
ROOT
ATOM      1  NE  ARG A   1       6.350   8.290  10.960  0.00  0.00    -0.265 N 
ATOM      2  HE  ARG A   1       5.397   8.692  10.848  0.00  0.00    +0.259 HD
ATOM      3  CZ  ARG A   1       6.662   7.214  10.235  0.00  0.00    +0.342 C 
ATOM      4  NH2 ARG A   1       7.870   6.659  10.340  0.00  0.00    -0.292 N 
ATOM      5 HH21 ARG A   1       8.574   7.065  10.989  0.00  0.00    +0.255 HD
ATOM      6 HH22 ARG A   1       8.108   5.820   9.773  0.00  0.00    +0.255 HD
ATOM      7  NH1 ARG A   1       5.765   6.678   9.413  0.00  0.00    -0.292 N 
ATOM      8 HH11 ARG A   1       4.817   7.097   9.333  0.00  0.00    +0.255 HD
ATOM      9 HH12 ARG A   1       6.012   5.839   8.850  0.00  0.00    +0.255 HD
ENDROOT
BRANCH   1  10
ATOM     10  CD  ARG A   1       7.261   8.942  11.903  0.00  0.00    +0.174 C 
BRANCH  10  11
ATOM     11  CG  ARG A   1       6.529   9.762  12.959  0.00  0.00    +0.045 C 
BRANCH  11  12
ATOM     12  CB  ARG A   1       7.488  10.226  14.045  0.00  0.00    +0.029 C 
BRANCH  12  13
ATOM     13  CA  ARG A   1       6.798  10.890  15.237  0.00  0.00    +0.133 C 
BRANCH  13  14
ATOM     14  N   ARG A   1       6.090  12.093  14.809  0.00  0.00    -0.239 NA
ATOM     15  H   ARG A   1       6.124  12.382  13.811  0.00  0.00    +0.142 HD
ENDBRANCH  13  14
BRANCH  13  16
ATOM     16  C   ARG A   1       7.835  11.228  16.306  0.00  0.00    +0.224 C 
ATOM     17  O   ARG A   1       8.558  12.214  16.189  0.00  0.00    -0.287 OA
ENDBRANCH  13  16
ENDBRANCH  12  13
ENDBRANCH  11  12
ENDBRANCH  10  11
ENDBRANCH   1  10
TORSDOF 6
REMARK  Name = ../refined-set-2016/1t7j/1t7j_pocket.pdb
REMARK  214 active torsions:
REMARK  status: ('A' for Active; 'I' for Inactive)
REMARK    1  A    between atoms: _1  and  _3
REMARK    2  A    between atoms: _3  and  _4
REMARK    3  A    between atoms: _3  and  _6
REMARK    4  A    between atoms: _6  and  _7
REMARK    5  A    between atoms: _7  and  _8
REMARK    6  A    between atoms: _8  and  _9
REMARK    7  A    between atoms: _18  and  _20
REMARK    8  A    between atoms: _20  and  _21
REMARK    9  A    between atoms: _20  and  _23
REMARK   10  A    between atoms: _23  and  _24
REMARK   11  A    between atoms: _27  and  _29
REMARK   12  A    between atoms: _29  and  _30
REMARK   13  A    between atoms: _29  and  _32
REMARK   14  A    between atoms: _32  and  _33
REMARK   15  A    between atoms: _36  and  _38
REMARK   16  A    between atoms: _38  and  _39
REMARK   17  A    between atoms: _38  and  _41
REMARK   18  A    between atoms: _41  and  _42
REMARK   19  A    between atoms: _45  and  _47
REMARK   20  A    between atoms: _47  and  _48
REMARK   21  A    between atoms: _47  and  _50
REMARK   22  A    between atoms: _50  and  _51
REMARK   23  A    between atoms: _54  and  _56
REMARK   24  A    between atoms: _56  and  _57
REMARK   25  A    between atoms: _59  and  _61
REMARK   26  A    between atoms: _61  and  _62
REMARK   27  A    between atoms: _65  and  _67
REMARK   28  A    between atoms: _67  and  _68
REMARK   29  A    between atoms: _67  and  _70
REMARK   30  A    between atoms: _70  and  _71
REMARK   31  A    between atoms: _74  and  _76
REMARK   32  A    between atoms: _76  and  _77
REMARK   33  A    between atoms: _76  and  _79
REMARK   34  A    between atoms: _79  and  _80
REMARK   35  A    between atoms: _83  and  _85
REMARK   36  A    between atoms: _85  and  _86
REMARK   37  A    between atoms: _85  and  _88
REMARK   38  A    between atoms: _88  and  _89
REMARK   39  A    between atoms: _92  and  _94
REMARK   40  A    between atoms: _94  and  _95
REMARK   41  A    between atoms: _94  and  _97
REMARK   42  A    between atoms: _100  and  _102
REMARK   43  A    between atoms: _102  and  _103
REMARK   44  A    between atoms: _102  and  _105
REMARK   45  A    between atoms: _105  and  _106
REMARK   46  A    between atoms: _109  and  _111
REMARK   47  A    between atoms: _111  and  _112
REMARK   48  A    between atoms: _114  and  _116
REMARK   49  A    between atoms: _116  and  _117
REMARK   50  A    between atoms: _119  and  _121
REMARK   51  A    between atoms: _121  and  _122
REMARK   52  A    between atoms: _121  and  _124
REMARK   53  A    between atoms: _124  and  _125
REMARK   54  A    between atoms: _128  and  _130
REMARK   55  A    between atoms: _130  and  _131
REMARK   56  A    between atoms: _133  and  _135
REMARK   57  A    between atoms: _135  and  _136
REMARK   58  A    between atoms: _138  and  _140
REMARK   59  A    between atoms: _140  and  _141
REMARK   60  A    between atoms: _140  and  _143
REMARK   61  A    between atoms: _143  and  _144
REMARK   62  A    between atoms: _147  and  _149
REMARK   63  A    between atoms: _149  and  _150
REMARK   64  A    between atoms: _149  and  _152
REMARK   65  A    between atoms: _152  and  _153
REMARK   66  A    between atoms: _156  and  _158
REMARK   67  A    between atoms: _158  and  _159
REMARK   68  A    between atoms: _158  and  _161
REMARK   69  A    between atoms: _161  and  _162
REMARK   70  A    between atoms: _166  and  _167
REMARK   71  A    between atoms: _172  and  _174
REMARK   72  A    between atoms: _174  and  _175
REMARK   73  A    between atoms: _174  and  _177
REMARK   74  A    between atoms: _177  and  _178
REMARK   75  A    between atoms: _181  and  _183
REMARK   76  A    between atoms: _183  and  _184
REMARK   77  A    between atoms: _183  and  _186
REMARK   78  A    between atoms: _186  and  _187
REMARK   79  A    between atoms: _192  and  _194
REMARK   80  A    between atoms: _194  and  _195
REMARK   81  A    between atoms: _194  and  _197
REMARK   82  A    between atoms: _200  and  _202
REMARK   83  A    between atoms: _202  and  _203
REMARK   84  A    between atoms: _202  and  _205
REMARK   85  A    between atoms: _205  and  _206
REMARK   86  A    between atoms: _209  and  _211
REMARK   87  A    between atoms: _211  and  _212
REMARK   88  A    between atoms: _214  and  _216
REMARK   89  A    between atoms: _216  and  _217
REMARK   90  A    between atoms: _216  and  _219
REMARK   91  A    between atoms: _219  and  _220
REMARK   92  A    between atoms: _220  and  _221
REMARK   93  A    between atoms: _221  and  _222
REMARK   94  A    between atoms: _231  and  _233
REMARK   95  A    between atoms: _233  and  _234
REMARK   96  A    between atoms: _233  and  _236
REMARK   97  A    between atoms: _236  and  _237
REMARK   98  A    between atoms: _242  and  _244
REMARK   99  A    between atoms: _244  and  _245
REMARK  100  A    between atoms: _244  and  _247
REMARK  101  A    between atoms: _247  and  _248
REMARK  102  A    between atoms: _248  and  _249
REMARK  103  A    between atoms: _249  and  _250
REMARK  104  A    between atoms: _259  and  _261
REMARK  105  A    between atoms: _261  and  _262
REMARK  106  A    between atoms: _261  and  _264
REMARK  107  A    between atoms: _264  and  _265
REMARK  108  A    between atoms: _268  and  _270
REMARK  109  A    between atoms: _270  and  _271
REMARK  110  A    between atoms: _270  and  _273
REMARK  111  A    between atoms: _273  and  _274
REMARK  112  A    between atoms: _277  and  _279
REMARK  113  A    between atoms: _279  and  _280
REMARK  114  A    between atoms: _279  and  _282
REMARK  115  A    between atoms: _282  and  _283
REMARK  116  A    between atoms: _286  and  _288
REMARK  117  A    between atoms: _288  and  _289
REMARK  118  A    between atoms: _288  and  _291
REMARK  119  A    between atoms: _291  and  _292
REMARK  120  A    between atoms: _295  and  _297
REMARK  121  A    between atoms: _297  and  _298
REMARK  122  A    between atoms: _300  and  _302
REMARK  123  A    between atoms: _302  and  _303
REMARK  124  A    between atoms: _306  and  _308
REMARK  125  A    between atoms: _308  and  _309
REMARK  126  A    between atoms: _308  and  _311
REMARK  127  A    between atoms: _311  and  _312
REMARK  128  A    between atoms: _315  and  _317
REMARK  129  A    between atoms: _317  and  _318
REMARK  130  A    between atoms: _317  and  _320
REMARK  131  A    between atoms: _320  and  _321
REMARK  132  A    between atoms: _324  and  _326
REMARK  133  A    between atoms: _326  and  _327
REMARK  134  A    between atoms: _326  and  _329
REMARK  135  A    between atoms: _329  and  _330
REMARK  136  A    between atoms: _333  and  _335
REMARK  137  A    between atoms: _335  and  _336
REMARK  138  A    between atoms: _335  and  _338
REMARK  139  A    between atoms: _341  and  _343
REMARK  140  A    between atoms: _343  and  _344
REMARK  141  A    between atoms: _343  and  _346
REMARK  142  A    between atoms: _346  and  _347
REMARK  143  A    between atoms: _350  and  _352
REMARK  144  A    between atoms: _352  and  _353
REMARK  145  A    between atoms: _352  and  _355
REMARK  146  A    between atoms: _355  and  _356
REMARK  147  A    between atoms: _356  and  _357
REMARK  148  A    between atoms: _357  and  _358
REMARK  149  A    between atoms: _358  and  _359
REMARK  150  A    between atoms: _363  and  _365
REMARK  151  A    between atoms: _365  and  _366
REMARK  152  A    between atoms: _365  and  _368
REMARK  153  A    between atoms: _368  and  _369
REMARK  154  A    between atoms: _369  and  _370
REMARK  155  A    between atoms: _372  and  _374
REMARK  156  A    between atoms: _374  and  _375
REMARK  157  A    between atoms: _374  and  _377
REMARK  158  A    between atoms: _377  and  _378
REMARK  159  A    between atoms: _381  and  _383
REMARK  160  A    between atoms: _383  and  _384
REMARK  161  A    between atoms: _386  and  _388
REMARK  162  A    between atoms: _388  and  _389
REMARK  163  A    between atoms: _391  and  _393
REMARK  164  A    between atoms: _393  and  _394
REMARK  165  A    between atoms: _393  and  _396
REMARK  166  A    between atoms: _396  and  _397
REMARK  167  A    between atoms: _400  and  _402
REMARK  168  A    between atoms: _402  and  _403
REMARK  169  A    between atoms: _405  and  _407
REMARK  170  A    between atoms: _407  and  _408
REMARK  171  A    between atoms: _410  and  _412
REMARK  172  A    between atoms: _412  and  _413
REMARK  173  A    between atoms: _412  and  _415
REMARK  174  A    between atoms: _415  and  _416
REMARK  175  A    between atoms: _419  and  _421
REMARK  176  A    between atoms: _421  and  _422
REMARK  177  A    between atoms: _421  and  _424
REMARK  178  A    between atoms: _427  and  _429
REMARK  179  A    between atoms: _429  and  _430
REMARK  180  A    between atoms: _429  and  _432
REMARK  181  A    between atoms: _432  and  _433
REMARK  182  A    between atoms: _437  and  _438
REMARK  183  A    between atoms: _443  and  _445
REMARK  184  A    between atoms: _445  and  _446
REMARK  185  A    between atoms: _445  and  _448
REMARK  186  A    between atoms: _448  and  _449
REMARK  187  A    between atoms: _453  and  _454
REMARK  188  A    between atoms: _459  and  _461
REMARK  189  A    between atoms: _461  and  _462
REMARK  190  A    between atoms: _461  and  _464
REMARK  191  A    between atoms: _464  and  _465
REMARK  192  A    between atoms: _468  and  _470
REMARK  193  A    between atoms: _470  and  _471
REMARK  194  A    between atoms: _470  and  _473
REMARK  195  A    between atoms: _473  and  _474
REMARK  196  A    between atoms: _479  and  _481
REMARK  197  A    between atoms: _481  and  _482
REMARK  198  A    between atoms: _481  and  _484
REMARK  199  A    between atoms: _487  and  _489
REMARK  200  A    between atoms: _489  and  _490
REMARK  201  A    between atoms: _489  and  _492
REMARK  202  A    between atoms: _492  and  _493
REMARK  203  A    between atoms: _496  and  _498
REMARK  204  A    between atoms: _498  and  _499
REMARK  205  A    between atoms: _501  and  _503
REMARK  206  A    between atoms: _503  and  _504
REMARK  207  A    between atoms: _503  and  _506
REMARK  208  A    between atoms: _506  and  _507
REMARK  209  A    between atoms: _507  and  _508
REMARK  210  A    between atoms: _508  and  _509
REMARK  211  A    between atoms: _518  and  _520
REMARK  212  A    between atoms: _520  and  _521
REMARK  213  A    between atoms: _520  and  _523
REMARK  214  A    between atoms: _523  and  _524
REMARK                            x       y       z     vdW  Elec       q    Type
REMARK                         _______ _______ _______ _____ _____    ______ ____
ROOT
ATOM      1  C   ALA A   6       8.896  -3.102  21.238  0.00  0.00    +0.241 C 
ATOM      2  O   ALA A   6       9.376  -2.383  22.124  0.00  0.00    -0.273 OA
ATOM      3  N   ASP A   7       8.834  -4.430  21.341  0.00  0.00    -0.297 N 
ATOM      4  H   ASP A   7       8.398  -4.985  20.577  0.00  0.00    +0.150 HD
ENDROOT
BRANCH   1   5
ATOM      5  CA  ALA A   6       8.324  -2.479  19.965  0.00  0.00    +0.149 C 
ATOM      6  CB  ALA A   6       9.424  -1.772  19.200  0.00  0.00    +0.031 C 
BRANCH   5   8
ATOM      7  C   GLY A   5       5.992  -1.887  20.294  0.00  0.00    +0.243 C 
ATOM      8  N   ALA A   6       7.273  -1.535  20.314  0.00  0.00    -0.297 N 
ATOM      9  H   ALA A   6       7.530  -0.564  20.585  0.00  0.00    +0.150 HD
ATOM     10  O   GLY A   5       5.610  -3.015  19.968  0.00  0.00    -0.273 OA
BRANCH   7  11
ATOM     11  CA  GLY A   5       4.990  -0.815  20.697  0.00  0.00    +0.176 C 
BRANCH  11  14
ATOM     12  C   THR A   4       5.827   0.347  22.658  0.00  0.00    +0.243 C 
ATOM     13  O   THR A   4       5.569  -0.608  23.398  0.00  0.00    -0.273 OA
ATOM     14  N   GLY A   5       5.586   0.339  21.350  0.00  0.00    -0.295 N 
ATOM     15  H   GLY A   5       5.829   1.176  20.782  0.00  0.00    +0.150 HD
BRANCH  12  16
ATOM     16  CA  THR A   4       6.449   1.636  23.223  0.00  0.00    +0.176 C 
BRANCH  16  18
ATOM     17  C   ASP A   3       8.041   2.049  21.431  0.00  0.00    +0.241 C 
ATOM     18  N   THR A   4       6.996   2.438  22.145  0.00  0.00    -0.295 N 
ATOM     19  H   THR A   4       6.551   3.352  21.925  0.00  0.00    +0.150 HD
ATOM     20  O   ASP A   3       8.631   0.981  21.613  0.00  0.00    -0.273 OA
BRANCH  17  21
ATOM     21  CA  ASP A   3       8.461   3.005  20.327  0.00  0.00    +0.160 C 
BRANCH  21  23
ATOM     22  C   LEU A   2       9.542   5.153  20.410  0.00  0.00    +0.241 C 
ATOM     23  N   ASP A   3       9.610   3.842  20.599  0.00  0.00    -0.297 N 
ATOM     24  H   ASP A   3      10.493   3.414  20.944  0.00  0.00    +0.150 HD
ATOM     25  O   LEU A   2       8.501   5.728  20.099  0.00  0.00    -0.273 OA
BRANCH  22  26
ATOM     26  CA  LEU A   2      10.833   5.941  20.609  0.00  0.00    +0.149 C 
BRANCH  26  28
ATOM     27  C   LEU A   1      11.643   5.694  18.329  0.00  0.00    +0.238 C 
ATOM     28  N   LEU A   2      11.078   6.460  19.265  0.00  0.00    -0.297 N 
ATOM     29  H   LEU A   2      10.809   7.438  19.035  0.00  0.00    +0.150 HD
ATOM     30  O   LEU A   1      12.062   4.557  18.558  0.00  0.00    -0.274 OA
BRANCH  27  31
ATOM     31  CA  LEU A   1      11.784   6.294  16.929  0.00  0.00    +0.145 C 
BRANCH  31  32
ATOM     32  N   LEU A   1      13.124   6.126  16.405  0.00  0.00    -0.238 NA
ATOM     33  H   LEU A   1      13.333   5.283  15.833  0.00  0.00    +0.142 HD
ENDBRANCH  31  32
BRANCH  31  34
ATOM     34  CB  LEU A   1      10.811   5.602  15.973  0.00  0.00    +0.026 C 
BRANCH  34  35
ATOM     35  CG  LEU A   1       9.398   6.130  15.783  0.00  0.00    +0.002 C 
ATOM     36  CD2 LEU A   1       9.447   7.600  15.411  0.00  0.00    +0.000 C 
ATOM     37  CD1 LEU A   1       8.716   5.330  14.685  0.00  0.00    +0.000 C 
ENDBRANCH  34  35
ENDBRANCH  31  34
ENDBRANCH  27  31
ENDBRANCH  26  28
BRANCH  26  38
ATOM     38  CB  LEU A   2      10.619   7.071  21.611  0.00  0.00    +0.029 C 
BRANCH  38  39
ATOM     39  CG  LEU A   2      11.820   8.011  21.780  0.00  0.00    +0.002 C 
ATOM     40  CD2 LEU A   2      11.505   9.036  22.838  0.00  0.00    +0.000 C 
ATOM     41  CD1 LEU A   2      13.078   7.236  22.151  0.00  0.00    +0.000 C 
ENDBRANCH  38  39
ENDBRANCH  26  38
ENDBRANCH  22  26
ENDBRANCH  21  23
BRANCH  21  42
ATOM     42  CB  ASP A   3       8.749   2.230  19.045  0.00  0.00    +0.143 C 
BRANCH  42  43
ATOM     43  CG  ASP A   3       7.524   1.563  18.468  0.00  0.00    +0.367 C 
ATOM     44  OD2 ASP A   3       6.427   1.659  19.063  0.00  0.00    -0.246 OA
ATOM     45  OD1 ASP A   3       7.675   0.938  17.401  0.00  0.00    -0.246 OA
ENDBRANCH  42  43
ENDBRANCH  21  42
ENDBRANCH  17  21
ENDBRANCH  16  18
BRANCH  16  46
ATOM     46  CB  THR A   4       5.356   2.415  23.969  0.00  0.00    +0.137 C 
ATOM     47  CG2 THR A   4       5.938   3.663  24.625  0.00  0.00    +0.034 C 
BRANCH  46  48
ATOM     48  OG1 THR A   4       4.340   2.801  23.037  0.00  0.00    -0.382 OA
ATOM     49  HG1 THR A   4       3.950   1.991  22.622  0.00  0.00    +0.210 HD
ENDBRANCH  46  48
ENDBRANCH  16  46
ENDBRANCH  12  16
ENDBRANCH  11  14
ENDBRANCH   7  11
ENDBRANCH   5   8
ENDBRANCH   1   5
BRANCH   3  50
ATOM     50  CA  ASP A   7       9.373  -5.116  22.519  0.00  0.00    +0.160 C 
BRANCH  50  51
ATOM     51  C   ASP A   7      10.884  -4.955  22.560  0.00  0.00    +0.241 C 
ATOM     52  O   ASP A   7      11.468  -4.724  23.620  0.00  0.00    -0.273 OA
ATOM     53  N   ASP A   8      11.513  -5.085  21.397  0.00  0.00    -0.297 N 
ATOM     54  H   ASP A   8      10.958  -5.282  20.539  0.00  0.00    +0.150 HD
BRANCH  53  55
ATOM     55  CA  ASP A   8      12.959  -4.959  21.294  0.00  0.00    +0.160 C 
BRANCH  55  56
ATOM     56  C   ASP A   8      13.379  -3.920  20.284  0.00  0.00    +0.241 C 
ATOM     57  N   THR A   9      14.604  -3.445  20.433  0.00  0.00    -0.295 N 
ATOM     58  H   THR A   9      15.202  -3.805  21.204  0.00  0.00    +0.150 HD
ATOM     59  O   ASP A   8      12.618  -3.547  19.398  0.00  0.00    -0.273 OA
BRANCH  57  60
ATOM     60  CA  THR A   9      15.128  -2.431  19.539  0.00  0.00    +0.176 C 
BRANCH  60  61
ATOM     61  C   THR A   9      15.551  -3.046  18.211  0.00  0.00    +0.243 C 
ATOM     62  O   THR A   9      16.118  -4.138  18.172  0.00  0.00    -0.273 OA
ATOM     63  N   VAL A  10      15.274  -2.334  17.127  0.00  0.00    -0.297 N 
ATOM     64  H   VAL A  10      14.792  -1.418  17.232  0.00  0.00    +0.150 HD
BRANCH  63  65
ATOM     65  CA  VAL A  10      15.626  -2.800  15.797  0.00  0.00    +0.149 C 
BRANCH  65  66
ATOM     66  C   VAL A  10      16.232  -1.670  15.001  0.00  0.00    +0.241 C 
ATOM     67  O   VAL A  10      15.585  -0.651  14.754  0.00  0.00    -0.273 OA
ATOM     68  N   LEU A  11      17.483  -1.849  14.600  0.00  0.00    -0.298 N 
ATOM     69  H   LEU A  11      17.983  -2.729  14.841  0.00  0.00    +0.150 HD
BRANCH  68  70
ATOM     70  CA  LEU A  11      18.158  -0.824  13.827  0.00  0.00    +0.137 C 
BRANCH  70  71
ATOM     71  C   LEU A  11      18.399  -1.263  12.395  0.00  0.00    +0.227 C 
ATOM     72  O   LEU A  11      18.450  -2.456  12.093  0.00  0.00    -0.286 OA
ENDBRANCH  70  71
BRANCH  70  73
ATOM     73  CB  LEU A  11      19.481  -0.444  14.488  0.00  0.00    +0.028 C 
BRANCH  73  74
ATOM     74  CG  LEU A  11      19.346   0.212  15.866  0.00  0.00    +0.002 C 
ATOM     75  CD2 LEU A  11      18.912  -0.819  16.878  0.00  0.00    +0.000 C 
ATOM     76  CD1 LEU A  11      18.317   1.334  15.802  0.00  0.00    +0.000 C 
ENDBRANCH  73  74
ENDBRANCH  70  73
ENDBRANCH  68  70
ENDBRANCH  65  66
BRANCH  65  77
ATOM     77  CB  VAL A  10      14.400  -3.324  15.037  0.00  0.00    +0.027 C 
ATOM     78  CG2 VAL A  10      13.711  -4.386  15.856  0.00  0.00    +0.002 C 
ATOM     79  CG1 VAL A  10      14.826  -3.900  13.699  0.00  0.00    +0.002 C 
ENDBRANCH  65  77
ENDBRANCH  63  65
ENDBRANCH  60  61
BRANCH  60  80
ATOM     80  CB  THR A   9      16.328  -1.723  20.186  0.00  0.00    +0.137 C 
ATOM     81  CG2 THR A   9      16.802  -0.590  19.311  0.00  0.00    +0.034 C 
BRANCH  80  82
ATOM     82  OG1 THR A   9      15.939  -1.202  21.462  0.00  0.00    -0.382 OA
ATOM     83  HG1 THR A   9      15.639  -1.945  22.043  0.00  0.00    +0.210 HD
ENDBRANCH  80  82
ENDBRANCH  60  80
ENDBRANCH  57  60
ENDBRANCH  55  56
BRANCH  55  84
ATOM     84  CB  ASP A   8      13.586  -6.301  20.938  0.00  0.00    +0.143 C 
BRANCH  84  85
ATOM     85  CG  ASP A   8      13.597  -7.249  22.106  0.00  0.00    +0.367 C 
ATOM     86  OD2 ASP A   8      14.229  -6.906  23.131  0.00  0.00    -0.246 OA
ATOM     87  OD1 ASP A   8      12.969  -8.324  22.002  0.00  0.00    -0.246 OA
ENDBRANCH  84  85
ENDBRANCH  55  84
ENDBRANCH  53  55
ENDBRANCH  50  51
BRANCH  50  88
ATOM     88  CB  ASP A   7       9.049  -6.612  22.495  0.00  0.00    +0.143 C 
BRANCH  88  89
ATOM     89  CG  ASP A   7       7.571  -6.894  22.589  0.00  0.00    +0.367 C 
ATOM     90  OD2 ASP A   7       6.880  -6.246  23.391  0.00  0.00    -0.246 OA
ATOM     91  OD1 ASP A   7       7.098  -7.781  21.864  0.00  0.00    -0.246 OA
ENDBRANCH  88  89
ENDBRANCH  50  88
ENDBRANCH   3  50
TORSDOF 39
REMARK  Name = ../refined-set-2016/1t7j/1t7j_pocket.pdb
REMARK  214 active torsions:
REMARK  status: ('A' for Active; 'I' for Inactive)
REMARK    1  A    between atoms: _1  and  _3
REMARK    2  A    between atoms: _3  and  _4
REMARK    3  A    between atoms: _3  and  _6
REMARK    4  A    between atoms: _6  and  _7
REMARK    5  A    between atoms: _7  and  _8
REMARK    6  A    between atoms: _8  and  _9
REMARK    7  A    between atoms: _18  and  _20
REMARK    8  A    between atoms: _20  and  _21
REMARK    9  A    between atoms: _20  and  _23
REMARK   10  A    between atoms: _23  and  _24
REMARK   11  A    between atoms: _27  and  _29
REMARK   12  A    between atoms: _29  and  _30
REMARK   13  A    between atoms: _29  and  _32
REMARK   14  A    between atoms: _32  and  _33
REMARK   15  A    between atoms: _36  and  _38
REMARK   16  A    between atoms: _38  and  _39
REMARK   17  A    between atoms: _38  and  _41
REMARK   18  A    between atoms: _41  and  _42
REMARK   19  A    between atoms: _45  and  _47
REMARK   20  A    between atoms: _47  and  _48
REMARK   21  A    between atoms: _47  and  _50
REMARK   22  A    between atoms: _50  and  _51
REMARK   23  A    between atoms: _54  and  _56
REMARK   24  A    between atoms: _56  and  _57
REMARK   25  A    between atoms: _59  and  _61
REMARK   26  A    between atoms: _61  and  _62
REMARK   27  A    between atoms: _65  and  _67
REMARK   28  A    between atoms: _67  and  _68
REMARK   29  A    between atoms: _67  and  _70
REMARK   30  A    between atoms: _70  and  _71
REMARK   31  A    between atoms: _74  and  _76
REMARK   32  A    between atoms: _76  and  _77
REMARK   33  A    between atoms: _76  and  _79
REMARK   34  A    between atoms: _79  and  _80
REMARK   35  A    between atoms: _83  and  _85
REMARK   36  A    between atoms: _85  and  _86
REMARK   37  A    between atoms: _85  and  _88
REMARK   38  A    between atoms: _88  and  _89
REMARK   39  A    between atoms: _92  and  _94
REMARK   40  A    between atoms: _94  and  _95
REMARK   41  A    between atoms: _94  and  _97
REMARK   42  A    between atoms: _100  and  _102
REMARK   43  A    between atoms: _102  and  _103
REMARK   44  A    between atoms: _102  and  _105
REMARK   45  A    between atoms: _105  and  _106
REMARK   46  A    between atoms: _109  and  _111
REMARK   47  A    between atoms: _111  and  _112
REMARK   48  A    between atoms: _114  and  _116
REMARK   49  A    between atoms: _116  and  _117
REMARK   50  A    between atoms: _119  and  _121
REMARK   51  A    between atoms: _121  and  _122
REMARK   52  A    between atoms: _121  and  _124
REMARK   53  A    between atoms: _124  and  _125
REMARK   54  A    between atoms: _128  and  _130
REMARK   55  A    between atoms: _130  and  _131
REMARK   56  A    between atoms: _133  and  _135
REMARK   57  A    between atoms: _135  and  _136
REMARK   58  A    between atoms: _138  and  _140
REMARK   59  A    between atoms: _140  and  _141
REMARK   60  A    between atoms: _140  and  _143
REMARK   61  A    between atoms: _143  and  _144
REMARK   62  A    between atoms: _147  and  _149
REMARK   63  A    between atoms: _149  and  _150
REMARK   64  A    between atoms: _149  and  _152
REMARK   65  A    between atoms: _152  and  _153
REMARK   66  A    between atoms: _156  and  _158
REMARK   67  A    between atoms: _158  and  _159
REMARK   68  A    between atoms: _158  and  _161
REMARK   69  A    between atoms: _161  and  _162
REMARK   70  A    between atoms: _166  and  _167
REMARK   71  A    between atoms: _172  and  _174
REMARK   72  A    between atoms: _174  and  _175
REMARK   73  A    between atoms: _174  and  _177
REMARK   74  A    between atoms: _177  and  _178
REMARK   75  A    between atoms: _181  and  _183
REMARK   76  A    between atoms: _183  and  _184
REMARK   77  A    between atoms: _183  and  _186
REMARK   78  A    between atoms: _186  and  _187
REMARK   79  A    between atoms: _192  and  _194
REMARK   80  A    between atoms: _194  and  _195
REMARK   81  A    between atoms: _194  and  _197
REMARK   82  A    between atoms: _200  and  _202
REMARK   83  A    between atoms: _202  and  _203
REMARK   84  A    between atoms: _202  and  _205
REMARK   85  A    between atoms: _205  and  _206
REMARK   86  A    between atoms: _209  and  _211
REMARK   87  A    between atoms: _211  and  _212
REMARK   88  A    between atoms: _214  and  _216
REMARK   89  A    between atoms: _216  and  _217
REMARK   90  A    between atoms: _216  and  _219
REMARK   91  A    between atoms: _219  and  _220
REMARK   92  A    between atoms: _220  and  _221
REMARK   93  A    between atoms: _221  and  _222
REMARK   94  A    between atoms: _231  and  _233
REMARK   95  A    between atoms: _233  and  _234
REMARK   96  A    between atoms: _233  and  _236
REMARK   97  A    between atoms: _236  and  _237
REMARK   98  A    between atoms: _242  and  _244
REMARK   99  A    between atoms: _244  and  _245
REMARK  100  A    between atoms: _244  and  _247
REMARK  101  A    between atoms: _247  and  _248
REMARK  102  A    between atoms: _248  and  _249
REMARK  103  A    between atoms: _249  and  _250
REMARK  104  A    between atoms: _259  and  _261
REMARK  105  A    between atoms: _261  and  _262
REMARK  106  A    between atoms: _261  and  _264
REMARK  107  A    between atoms: _264  and  _265
REMARK  108  A    between atoms: _268  and  _270
REMARK  109  A    between atoms: _270  and  _271
REMARK  110  A    between atoms: _270  and  _273
REMARK  111  A    between atoms: _273  and  _274
REMARK  112  A    between atoms: _277  and  _279
REMARK  113  A    between atoms: _279  and  _280
REMARK  114  A    between atoms: _279  and  _282
REMARK  115  A    between atoms: _282  and  _283
REMARK  116  A    between atoms: _286  and  _288
REMARK  117  A    between atoms: _288  and  _289
REMARK  118  A    between atoms: _288  and  _291
REMARK  119  A    between atoms: _291  and  _292
REMARK  120  A    between atoms: _295  and  _297
REMARK  121  A    between atoms: _297  and  _298
REMARK  122  A    between atoms: _300  and  _302
REMARK  123  A    between atoms: _302  and  _303
REMARK  124  A    between atoms: _306  and  _308
REMARK  125  A    between atoms: _308  and  _309
REMARK  126  A    between atoms: _308  and  _311
REMARK  127  A    between atoms: _311  and  _312
REMARK  128  A    between atoms: _315  and  _317
REMARK  129  A    between atoms: _317  and  _318
REMARK  130  A    between atoms: _317  and  _320
REMARK  131  A    between atoms: _320  and  _321
REMARK  132  A    between atoms: _324  and  _326
REMARK  133  A    between atoms: _326  and  _327
REMARK  134  A    between atoms: _326  and  _329
REMARK  135  A    between atoms: _329  and  _330
REMARK  136  A    between atoms: _333  and  _335
REMARK  137  A    between atoms: _335  and  _336
REMARK  138  A    between atoms: _335  and  _338
REMARK  139  A    between atoms: _341  and  _343
REMARK  140  A    between atoms: _343  and  _344
REMARK  141  A    between atoms: _343  and  _346
REMARK  142  A    between atoms: _346  and  _347
REMARK  143  A    between atoms: _350  and  _352
REMARK  144  A    between atoms: _352  and  _353
REMARK  145  A    between atoms: _352  and  _355
REMARK  146  A    between atoms: _355  and  _356
REMARK  147  A    between atoms: _356  and  _357
REMARK  148  A    between atoms: _357  and  _358
REMARK  149  A    between atoms: _358  and  _359
REMARK  150  A    between atoms: _363  and  _365
REMARK  151  A    between atoms: _365  and  _366
REMARK  152  A    between atoms: _365  and  _368
REMARK  153  A    between atoms: _368  and  _369
REMARK  154  A    between atoms: _369  and  _370
REMARK  155  A    between atoms: _372  and  _374
REMARK  156  A    between atoms: _374  and  _375
REMARK  157  A    between atoms: _374  and  _377
REMARK  158  A    between atoms: _377  and  _378
REMARK  159  A    between atoms: _381  and  _383
REMARK  160  A    between atoms: _383  and  _384
REMARK  161  A    between atoms: _386  and  _388
REMARK  162  A    between atoms: _388  and  _389
REMARK  163  A    between atoms: _391  and  _393
REMARK  164  A    between atoms: _393  and  _394
REMARK  165  A    between atoms: _393  and  _396
REMARK  166  A    between atoms: _396  and  _397
REMARK  167  A    between atoms: _400  and  _402
REMARK  168  A    between atoms: _402  and  _403
REMARK  169  A    between atoms: _405  and  _407
REMARK  170  A    between atoms: _407  and  _408
REMARK  171  A    between atoms: _410  and  _412
REMARK  172  A    between atoms: _412  and  _413
REMARK  173  A    between atoms: _412  and  _415
REMARK  174  A    between atoms: _415  and  _416
REMARK  175  A    between atoms: _419  and  _421
REMARK  176  A    between atoms: _421  and  _422
REMARK  177  A    between atoms: _421  and  _424
REMARK  178  A    between atoms: _427  and  _429
REMARK  179  A    between atoms: _429  and  _430
REMARK  180  A    between atoms: _429  and  _432
REMARK  181  A    between atoms: _432  and  _433
REMARK  182  A    between atoms: _437  and  _438
REMARK  183  A    between atoms: _443  and  _445
REMARK  184  A    between atoms: _445  and  _446
REMARK  185  A    between atoms: _445  and  _448
REMARK  186  A    between atoms: _448  and  _449
REMARK  187  A    between atoms: _453  and  _454
REMARK  188  A    between atoms: _459  and  _461
REMARK  189  A    between atoms: _461  and  _462
REMARK  190  A    between atoms: _461  and  _464
REMARK  191  A    between atoms: _464  and  _465
REMARK  192  A    between atoms: _468  and  _470
REMARK  193  A    between atoms: _470  and  _471
REMARK  194  A    between atoms: _470  and  _473
REMARK  195  A    between atoms: _473  and  _474
REMARK  196  A    between atoms: _479  and  _481
REMARK  197  A    between atoms: _481  and  _482
REMARK  198  A    between atoms: _481  and  _484
REMARK  199  A    between atoms: _487  and  _489
REMARK  200  A    between atoms: _489  and  _490
REMARK  201  A    between atoms: _489  and  _492
REMARK  202  A    between atoms: _492  and  _493
REMARK  203  A    between atoms: _496  and  _498
REMARK  204  A    between atoms: _498  and  _499
REMARK  205  A    between atoms: _501  and  _503
REMARK  206  A    between atoms: _503  and  _504
REMARK  207  A    between atoms: _503  and  _506
REMARK  208  A    between atoms: _506  and  _507
REMARK  209  A    between atoms: _507  and  _508
REMARK  210  A    between atoms: _508  and  _509
REMARK  211  A    between atoms: _518  and  _520
REMARK  212  A    between atoms: _520  and  _521
REMARK  213  A    between atoms: _520  and  _523
REMARK  214  A    between atoms: _523  and  _524
REMARK                            x       y       z     vdW  Elec       q    Type
REMARK                         _______ _______ _______ _____ _____    ______ ____
ROOT
ATOM      1  C   ILE A   3       9.404 -10.416  13.106  0.00  0.00    +0.241 C 
ATOM      2  N   GLY A   4       8.175 -10.336  13.603  0.00  0.00    -0.295 N 
ATOM      3  H   GLY A   4       8.007 -10.531  14.611  0.00  0.00    +0.150 HD
ATOM      4  O   ILE A   3       9.671 -10.188  11.927  0.00  0.00    -0.273 OA
ENDROOT
BRANCH   2   5
ATOM      5  CA  GLY A   4       7.072  -9.978  12.743  0.00  0.00    +0.176 C 
BRANCH   5   6
ATOM      6  C   GLY A   4       6.233  -8.825  13.235  0.00  0.00    +0.243 C 
ATOM      7  O   GLY A   4       6.186  -8.511  14.424  0.00  0.00    -0.273 OA
ATOM      8  N   GLY A   5       5.570  -8.186  12.286  0.00  0.00    -0.295 N 
ATOM      9  H   GLY A   5       5.672  -8.491  11.297  0.00  0.00    +0.150 HD
BRANCH   8  10
ATOM     10  CA  GLY A   5       4.708  -7.073  12.599  0.00  0.00    +0.176 C 
BRANCH  10  11
ATOM     11  C   GLY A   5       3.722  -6.935  11.467  0.00  0.00    +0.243 C 
ATOM     12  N   ILE A   6       3.319  -5.709  11.182  0.00  0.00    -0.297 N 
ATOM     13  H   ILE A   6       3.681  -4.906  11.735  0.00  0.00    +0.150 HD
ATOM     14  O   GLY A   5       3.332  -7.923  10.852  0.00  0.00    -0.273 OA
BRANCH  12  15
ATOM     15  CA  ILE A   6       2.380  -5.475  10.110  0.00  0.00    +0.149 C 
BRANCH  15  16
ATOM     16  C   ILE A   6       3.070  -5.737   8.782  0.00  0.00    +0.241 C 
ATOM     17  O   ILE A   6       4.133  -5.180   8.492  0.00  0.00    -0.273 OA
ATOM     18  N   GLY A   7       2.472  -6.614   7.984  0.00  0.00    -0.295 N 
ATOM     19  H   GLY A   7       1.582  -7.065   8.276  0.00  0.00    +0.150 HD
BRANCH  18  20
ATOM     20  CA  GLY A   7       3.066  -6.937   6.707  0.00  0.00    +0.176 C 
BRANCH  20  21
ATOM     21  C   GLY A   7       3.842  -8.238   6.741  0.00  0.00    +0.243 C 
ATOM     22  N   GLY A   8       4.118  -8.764   7.933  0.00  0.00    -0.296 N 
ATOM     23  H   GLY A   8       3.815  -8.275   8.799  0.00  0.00    +0.150 HD
ATOM     24  O   GLY A   7       4.189  -8.759   5.695  0.00  0.00    -0.273 OA
BRANCH  22  25
ATOM     25  CA  GLY A   8       4.842 -10.020   8.025  0.00  0.00    +0.163 C 
BRANCH  25  26
ATOM     26  C   GLY A   8       6.123 -10.012   8.840  0.00  0.00    +0.229 C 
ATOM     27  O   GLY A   8       6.308  -9.183   9.741  0.00  0.00    -0.286 OA
ENDBRANCH  25  26
ENDBRANCH  22  25
ENDBRANCH  20  21
ENDBRANCH  18  20
ENDBRANCH  15  16
BRANCH  15  28
ATOM     28  CB  ILE A   6       1.836  -4.048  10.192  0.00  0.00    +0.027 C 
ATOM     29  CG2 ILE A   6       1.143  -3.657   8.881  0.00  0.00    +0.002 C 
BRANCH  28  30
ATOM     30  CG1 ILE A   6       0.883  -3.969  11.393  0.00  0.00    +0.002 C 
ATOM     31  CD1 ILE A   6       0.446  -2.589  11.753  0.00  0.00    +0.000 C 
ENDBRANCH  28  30
ENDBRANCH  15  28
ENDBRANCH  12  15
ENDBRANCH  10  11
ENDBRANCH   8  10
ENDBRANCH   5   6
ENDBRANCH   2   5
BRANCH   1  32
ATOM     32  CA  ILE A   3      10.489 -10.836  14.076  0.00  0.00    +0.149 C 
BRANCH  32  35
ATOM     33  C   MET A   2      11.781 -12.856  13.699  0.00  0.00    +0.241 C 
ATOM     34  O   MET A   2      11.336 -13.376  14.723  0.00  0.00    -0.273 OA
ATOM     35  N   ILE A   3      11.453 -11.626  13.319  0.00  0.00    -0.297 N 
ATOM     36  H   ILE A   3      11.891 -11.220  12.468  0.00  0.00    +0.150 HD
BRANCH  33  37
ATOM     37  CA  MET A   2      12.769 -13.618  12.819  0.00  0.00    +0.149 C 
BRANCH  37  39
ATOM     38  C   LYS A   1      15.124 -13.703  13.447  0.00  0.00    +0.238 C 
ATOM     39  N   MET A   2      13.866 -14.069  13.664  0.00  0.00    -0.297 N 
ATOM     40  H   MET A   2      13.657 -14.699  14.465  0.00  0.00    +0.150 HD
ATOM     41  O   LYS A   1      15.459 -12.976  12.504  0.00  0.00    -0.274 OA
BRANCH  38  42
ATOM     42  CA  LYS A   1      16.150 -14.246  14.434  0.00  0.00    +0.145 C 
BRANCH  42  43
ATOM     43  N   LYS A   1      17.466 -14.286  13.844  0.00  0.00    -0.238 NA
ATOM     44  H   LYS A   1      17.693 -13.667  13.039  0.00  0.00    +0.142 HD
ENDBRANCH  42  43
BRANCH  42  45
ATOM     45  CB  LYS A   1      16.198 -13.366  15.688  0.00  0.00    +0.026 C 
BRANCH  45  46
ATOM     46  CG  LYS A   1      14.968 -13.414  16.552  0.00  0.00    -0.000 C 
BRANCH  46  47
ATOM     47  CD  LYS A   1      15.142 -12.520  17.774  0.00  0.00    -0.024 C 
BRANCH  47  48
ATOM     48  CE  LYS A   1      13.894 -12.522  18.641  0.00  0.00    -0.086 C 
BRANCH  48  49
ATOM     49  NZ  LYS A   1      14.035 -11.641  19.829  0.00  0.00    +0.380 N 
ATOM     50  HZ1 LYS A   1      14.833 -11.969  20.410  0.00  0.00    -0.089 HD
ATOM     51  HZ2 LYS A   1      13.160 -11.675  20.390  0.00  0.00    -0.089 HD
ATOM     52  HZ3 LYS A   1      14.210 -10.665  19.516  0.00  0.00    -0.089 HD
ENDBRANCH  48  49
ENDBRANCH  47  48
ENDBRANCH  46  47
ENDBRANCH  45  46
ENDBRANCH  42  45
ENDBRANCH  38  42
ENDBRANCH  37  39
BRANCH  37  53
ATOM     53  CB  MET A   2      12.042 -14.813  12.191  0.00  0.00    +0.041 C 
BRANCH  53  54
ATOM     54  CG  MET A   2      12.899 -15.745  11.342  0.00  0.00    +0.060 C 
BRANCH  54  55
ATOM     55  SD  MET A   2      12.753 -15.459   9.568  0.00  0.00    -0.139 S 
ATOM     56  CE  MET A   2      11.094 -16.040   9.239  0.00  0.00    +0.069 C 
ENDBRANCH  54  55
ENDBRANCH  53  54
ENDBRANCH  37  53
ENDBRANCH  33  37
ENDBRANCH  32  35
BRANCH  32  57
ATOM     57  CB  ILE A   3      11.093  -9.591  14.733  0.00  0.00    +0.027 C 
ATOM     58  CG2 ILE A   3      12.030 -10.009  15.837  0.00  0.00    +0.002 C 
BRANCH  57  59
ATOM     59  CG1 ILE A   3      11.798  -8.724  13.688  0.00  0.00    +0.002 C 
ATOM     60  CD1 ILE A   3      12.069  -7.340  14.174  0.00  0.00    +0.000 C 
ENDBRANCH  57  59
ENDBRANCH  32  57
ENDBRANCH   1  32
TORSDOF 28
REMARK  Name = ../refined-set-2016/1t7j/1t7j_pocket.pdb
REMARK  214 active torsions:
REMARK  status: ('A' for Active; 'I' for Inactive)
REMARK    1  A    between atoms: _1  and  _3
REMARK    2  A    between atoms: _3  and  _4
REMARK    3  A    between atoms: _3  and  _6
REMARK    4  A    between atoms: _6  and  _7
REMARK    5  A    between atoms: _7  and  _8
REMARK    6  A    between atoms: _8  and  _9
REMARK    7  A    between atoms: _18  and  _20
REMARK    8  A    between atoms: _20  and  _21
REMARK    9  A    between atoms: _20  and  _23
REMARK   10  A    between atoms: _23  and  _24
REMARK   11  A    between atoms: _27  and  _29
REMARK   12  A    between atoms: _29  and  _30
REMARK   13  A    between atoms: _29  and  _32
REMARK   14  A    between atoms: _32  and  _33
REMARK   15  A    between atoms: _36  and  _38
REMARK   16  A    between atoms: _38  and  _39
REMARK   17  A    between atoms: _38  and  _41
REMARK   18  A    between atoms: _41  and  _42
REMARK   19  A    between atoms: _45  and  _47
REMARK   20  A    between atoms: _47  and  _48
REMARK   21  A    between atoms: _47  and  _50
REMARK   22  A    between atoms: _50  and  _51
REMARK   23  A    between atoms: _54  and  _56
REMARK   24  A    between atoms: _56  and  _57
REMARK   25  A    between atoms: _59  and  _61
REMARK   26  A    between atoms: _61  and  _62
REMARK   27  A    between atoms: _65  and  _67
REMARK   28  A    between atoms: _67  and  _68
REMARK   29  A    between atoms: _67  and  _70
REMARK   30  A    between atoms: _70  and  _71
REMARK   31  A    between atoms: _74  and  _76
REMARK   32  A    between atoms: _76  and  _77
REMARK   33  A    between atoms: _76  and  _79
REMARK   34  A    between atoms: _79  and  _80
REMARK   35  A    between atoms: _83  and  _85
REMARK   36  A    between atoms: _85  and  _86
REMARK   37  A    between atoms: _85  and  _88
REMARK   38  A    between atoms: _88  and  _89
REMARK   39  A    between atoms: _92  and  _94
REMARK   40  A    between atoms: _94  and  _95
REMARK   41  A    between atoms: _94  and  _97
REMARK   42  A    between atoms: _100  and  _102
REMARK   43  A    between atoms: _102  and  _103
REMARK   44  A    between atoms: _102  and  _105
REMARK   45  A    between atoms: _105  and  _106
REMARK   46  A    between atoms: _109  and  _111
REMARK   47  A    between atoms: _111  and  _112
REMARK   48  A    between atoms: _114  and  _116
REMARK   49  A    between atoms: _116  and  _117
REMARK   50  A    between atoms: _119  and  _121
REMARK   51  A    between atoms: _121  and  _122
REMARK   52  A    between atoms: _121  and  _124
REMARK   53  A    between atoms: _124  and  _125
REMARK   54  A    between atoms: _128  and  _130
REMARK   55  A    between atoms: _130  and  _131
REMARK   56  A    between atoms: _133  and  _135
REMARK   57  A    between atoms: _135  and  _136
REMARK   58  A    between atoms: _138  and  _140
REMARK   59  A    between atoms: _140  and  _141
REMARK   60  A    between atoms: _140  and  _143
REMARK   61  A    between atoms: _143  and  _144
REMARK   62  A    between atoms: _147  and  _149
REMARK   63  A    between atoms: _149  and  _150
REMARK   64  A    between atoms: _149  and  _152
REMARK   65  A    between atoms: _152  and  _153
REMARK   66  A    between atoms: _156  and  _158
REMARK   67  A    between atoms: _158  and  _159
REMARK   68  A    between atoms: _158  and  _161
REMARK   69  A    between atoms: _161  and  _162
REMARK   70  A    between atoms: _166  and  _167
REMARK   71  A    between atoms: _172  and  _174
REMARK   72  A    between atoms: _174  and  _175
REMARK   73  A    between atoms: _174  and  _177
REMARK   74  A    between atoms: _177  and  _178
REMARK   75  A    between atoms: _181  and  _183
REMARK   76  A    between atoms: _183  and  _184
REMARK   77  A    between atoms: _183  and  _186
REMARK   78  A    between atoms: _186  and  _187
REMARK   79  A    between atoms: _192  and  _194
REMARK   80  A    between atoms: _194  and  _195
REMARK   81  A    between atoms: _194  and  _197
REMARK   82  A    between atoms: _200  and  _202
REMARK   83  A    between atoms: _202  and  _203
REMARK   84  A    between atoms: _202  and  _205
REMARK   85  A    between atoms: _205  and  _206
REMARK   86  A    between atoms: _209  and  _211
REMARK   87  A    between atoms: _211  and  _212
REMARK   88  A    between atoms: _214  and  _216
REMARK   89  A    between atoms: _216  and  _217
REMARK   90  A    between atoms: _216  and  _219
REMARK   91  A    between atoms: _219  and  _220
REMARK   92  A    between atoms: _220  and  _221
REMARK   93  A    between atoms: _221  and  _222
REMARK   94  A    between atoms: _231  and  _233
REMARK   95  A    between atoms: _233  and  _234
REMARK   96  A    between atoms: _233  and  _236
REMARK   97  A    between atoms: _236  and  _237
REMARK   98  A    between atoms: _242  and  _244
REMARK   99  A    between atoms: _244  and  _245
REMARK  100  A    between atoms: _244  and  _247
REMARK  101  A    between atoms: _247  and  _248
REMARK  102  A    between atoms: _248  and  _249
REMARK  103  A    between atoms: _249  and  _250
REMARK  104  A    between atoms: _259  and  _261
REMARK  105  A    between atoms: _261  and  _262
REMARK  106  A    between atoms: _261  and  _264
REMARK  107  A    between atoms: _264  and  _265
REMARK  108  A    between atoms: _268  and  _270
REMARK  109  A    between atoms: _270  and  _271
REMARK  110  A    between atoms: _270  and  _273
REMARK  111  A    between atoms: _273  and  _274
REMARK  112  A    between atoms: _277  and  _279
REMARK  113  A    between atoms: _279  and  _280
REMARK  114  A    between atoms: _279  and  _282
REMARK  115  A    between atoms: _282  and  _283
REMARK  116  A    between atoms: _286  and  _288
REMARK  117  A    between atoms: _288  and  _289
REMARK  118  A    between atoms: _288  and  _291
REMARK  119  A    between atoms: _291  and  _292
REMARK  120  A    between atoms: _295  and  _297
REMARK  121  A    between atoms: _297  and  _298
REMARK  122  A    between atoms: _300  and  _302
REMARK  123  A    between atoms: _302  and  _303
REMARK  124  A    between atoms: _306  and  _308
REMARK  125  A    between atoms: _308  and  _309
REMARK  126  A    between atoms: _308  and  _311
REMARK  127  A    between atoms: _311  and  _312
REMARK  128  A    between atoms: _315  and  _317
REMARK  129  A    between atoms: _317  and  _318
REMARK  130  A    between atoms: _317  and  _320
REMARK  131  A    between atoms: _320  and  _321
REMARK  132  A    between atoms: _324  and  _326
REMARK  133  A    between atoms: _326  and  _327
REMARK  134  A    between atoms: _326  and  _329
REMARK  135  A    between atoms: _329  and  _330
REMARK  136  A    between atoms: _333  and  _335
REMARK  137  A    between atoms: _335  and  _336
REMARK  138  A    between atoms: _335  and  _338
REMARK  139  A    between atoms: _341  and  _343
REMARK  140  A    between atoms: _343  and  _344
REMARK  141  A    between atoms: _343  and  _346
REMARK  142  A    between atoms: _346  and  _347
REMARK  143  A    between atoms: _350  and  _352
REMARK  144  A    between atoms: _352  and  _353
REMARK  145  A    between atoms: _352  and  _355
REMARK  146  A    between atoms: _355  and  _356
REMARK  147  A    between atoms: _356  and  _357
REMARK  148  A    between atoms: _357  and  _358
REMARK  149  A    between atoms: _358  and  _359
REMARK  150  A    between atoms: _363  and  _365
REMARK  151  A    between atoms: _365  and  _366
REMARK  152  A    between atoms: _365  and  _368
REMARK  153  A    between atoms: _368  and  _369
REMARK  154  A    between atoms: _369  and  _370
REMARK  155  A    between atoms: _372  and  _374
REMARK  156  A    between atoms: _374  and  _375
REMARK  157  A    between atoms: _374  and  _377
REMARK  158  A    between atoms: _377  and  _378
REMARK  159  A    between atoms: _381  and  _383
REMARK  160  A    between atoms: _383  and  _384
REMARK  161  A    between atoms: _386  and  _388
REMARK  162  A    between atoms: _388  and  _389
REMARK  163  A    between atoms: _391  and  _393
REMARK  164  A    between atoms: _393  and  _394
REMARK  165  A    between atoms: _393  and  _396
REMARK  166  A    between atoms: _396  and  _397
REMARK  167  A    between atoms: _400  and  _402
REMARK  168  A    between atoms: _402  and  _403
REMARK  169  A    between atoms: _405  and  _407
REMARK  170  A    between atoms: _407  and  _408
REMARK  171  A    between atoms: _410  and  _412
REMARK  172  A    between atoms: _412  and  _413
REMARK  173  A    between atoms: _412  and  _415
REMARK  174  A    between atoms: _415  and  _416
REMARK  175  A    between atoms: _419  and  _421
REMARK  176  A    between atoms: _421  and  _422
REMARK  177  A    between atoms: _421  and  _424
REMARK  178  A    between atoms: _427  and  _429
REMARK  179  A    between atoms: _429  and  _430
REMARK  180  A    between atoms: _429  and  _432
REMARK  181  A    between atoms: _432  and  _433
REMARK  182  A    between atoms: _437  and  _438
REMARK  183  A    between atoms: _443  and  _445
REMARK  184  A    between atoms: _445  and  _446
REMARK  185  A    between atoms: _445  and  _448
REMARK  186  A    between atoms: _448  and  _449
REMARK  187  A    between atoms: _453  and  _454
REMARK  188  A    between atoms: _459  and  _461
REMARK  189  A    between atoms: _461  and  _462
REMARK  190  A    between atoms: _461  and  _464
REMARK  191  A    between atoms: _464  and  _465
REMARK  192  A    between atoms: _468  and  _470
REMARK  193  A    between atoms: _470  and  _471
REMARK  194  A    between atoms: _470  and  _473
REMARK  195  A    between atoms: _473  and  _474
REMARK  196  A    between atoms: _479  and  _481
REMARK  197  A    between atoms: _481  and  _482
REMARK  198  A    between atoms: _481  and  _484
REMARK  199  A    between atoms: _487  and  _489
REMARK  200  A    between atoms: _489  and  _490
REMARK  201  A    between atoms: _489  and  _492
REMARK  202  A    between atoms: _492  and  _493
REMARK  203  A    between atoms: _496  and  _498
REMARK  204  A    between atoms: _498  and  _499
REMARK  205  A    between atoms: _501  and  _503
REMARK  206  A    between atoms: _503  and  _504
REMARK  207  A    between atoms: _503  and  _506
REMARK  208  A    between atoms: _506  and  _507
REMARK  209  A    between atoms: _507  and  _508
REMARK  210  A    between atoms: _508  and  _509
REMARK  211  A    between atoms: _518  and  _520
REMARK  212  A    between atoms: _520  and  _521
REMARK  213  A    between atoms: _520  and  _523
REMARK  214  A    between atoms: _523  and  _524
REMARK                            x       y       z     vdW  Elec       q    Type
REMARK                         _______ _______ _______ _____ _____    ______ ____
ROOT
ATOM      1  CA  ILE A   1      11.860  -9.990   8.531  0.00  0.00    +0.133 C 
ENDROOT
BRANCH   1   2
ATOM      2  N   ILE A   1      10.586 -10.340   9.151  0.00  0.00    -0.239 NA
ATOM      3  H   ILE A   1      10.508 -10.332  10.188  0.00  0.00    +0.142 HD
ENDBRANCH   1   2
BRANCH   1   4
ATOM      4  C   ILE A   1      12.938 -10.699   9.350  0.00  0.00    +0.224 C 
ATOM      5  O   ILE A   1      12.758 -10.944  10.550  0.00  0.00    -0.287 OA
ENDBRANCH   1   4
BRANCH   1   6
ATOM      6  CB  ILE A   1      12.183  -8.466   8.567  0.00  0.00    +0.023 C 
ATOM      7  CG2 ILE A   1      11.274  -7.706   7.613  0.00  0.00    +0.002 C 
BRANCH   6   8
ATOM      8  CG1 ILE A   1      12.130  -7.963  10.009  0.00  0.00    +0.002 C 
ATOM      9  CD1 ILE A   1      12.887  -6.689  10.228  0.00  0.00    +0.000 C 
ENDBRANCH   6   8
ENDBRANCH   1   6
TORSDOF 4
REMARK  Name = ../refined-set-2016/1t7j/1t7j_pocket.pdb
REMARK  214 active torsions:
REMARK  status: ('A' for Active; 'I' for Inactive)
REMARK    1  A    between atoms: _1  and  _3
REMARK    2  A    between atoms: _3  and  _4
REMARK    3  A    between atoms: _3  and  _6
REMARK    4  A    between atoms: _6  and  _7
REMARK    5  A    between atoms: _7  and  _8
REMARK    6  A    between atoms: _8  and  _9
REMARK    7  A    between atoms: _18  and  _20
REMARK    8  A    between atoms: _20  and  _21
REMARK    9  A    between atoms: _20  and  _23
REMARK   10  A    between atoms: _23  and  _24
REMARK   11  A    between atoms: _27  and  _29
REMARK   12  A    between atoms: _29  and  _30
REMARK   13  A    between atoms: _29  and  _32
REMARK   14  A    between atoms: _32  and  _33
REMARK   15  A    between atoms: _36  and  _38
REMARK   16  A    between atoms: _38  and  _39
REMARK   17  A    between atoms: _38  and  _41
REMARK   18  A    between atoms: _41  and  _42
REMARK   19  A    between atoms: _45  and  _47
REMARK   20  A    between atoms: _47  and  _48
REMARK   21  A    between atoms: _47  and  _50
REMARK   22  A    between atoms: _50  and  _51
REMARK   23  A    between atoms: _54  and  _56
REMARK   24  A    between atoms: _56  and  _57
REMARK   25  A    between atoms: _59  and  _61
REMARK   26  A    between atoms: _61  and  _62
REMARK   27  A    between atoms: _65  and  _67
REMARK   28  A    between atoms: _67  and  _68
REMARK   29  A    between atoms: _67  and  _70
REMARK   30  A    between atoms: _70  and  _71
REMARK   31  A    between atoms: _74  and  _76
REMARK   32  A    between atoms: _76  and  _77
REMARK   33  A    between atoms: _76  and  _79
REMARK   34  A    between atoms: _79  and  _80
REMARK   35  A    between atoms: _83  and  _85
REMARK   36  A    between atoms: _85  and  _86
REMARK   37  A    between atoms: _85  and  _88
REMARK   38  A    between atoms: _88  and  _89
REMARK   39  A    between atoms: _92  and  _94
REMARK   40  A    between atoms: _94  and  _95
REMARK   41  A    between atoms: _94  and  _97
REMARK   42  A    between atoms: _100  and  _102
REMARK   43  A    between atoms: _102  and  _103
REMARK   44  A    between atoms: _102  and  _105
REMARK   45  A    between atoms: _105  and  _106
REMARK   46  A    between atoms: _109  and  _111
REMARK   47  A    between atoms: _111  and  _112
REMARK   48  A    between atoms: _114  and  _116
REMARK   49  A    between atoms: _116  and  _117
REMARK   50  A    between atoms: _119  and  _121
REMARK   51  A    between atoms: _121  and  _122
REMARK   52  A    between atoms: _121  and  _124
REMARK   53  A    between atoms: _124  and  _125
REMARK   54  A    between atoms: _128  and  _130
REMARK   55  A    between atoms: _130  and  _131
REMARK   56  A    between atoms: _133  and  _135
REMARK   57  A    between atoms: _135  and  _136
REMARK   58  A    between atoms: _138  and  _140
REMARK   59  A    between atoms: _140  and  _141
REMARK   60  A    between atoms: _140  and  _143
REMARK   61  A    between atoms: _143  and  _144
REMARK   62  A    between atoms: _147  and  _149
REMARK   63  A    between atoms: _149  and  _150
REMARK   64  A    between atoms: _149  and  _152
REMARK   65  A    between atoms: _152  and  _153
REMARK   66  A    between atoms: _156  and  _158
REMARK   67  A    between atoms: _158  and  _159
REMARK   68  A    between atoms: _158  and  _161
REMARK   69  A    between atoms: _161  and  _162
REMARK   70  A    between atoms: _166  and  _167
REMARK   71  A    between atoms: _172  and  _174
REMARK   72  A    between atoms: _174  and  _175
REMARK   73  A    between atoms: _174  and  _177
REMARK   74  A    between atoms: _177  and  _178
REMARK   75  A    between atoms: _181  and  _183
REMARK   76  A    between atoms: _183  and  _184
REMARK   77  A    between atoms: _183  and  _186
REMARK   78  A    between atoms: _186  and  _187
REMARK   79  A    between atoms: _192  and  _194
REMARK   80  A    between atoms: _194  and  _195
REMARK   81  A    between atoms: _194  and  _197
REMARK   82  A    between atoms: _200  and  _202
REMARK   83  A    between atoms: _202  and  _203
REMARK   84  A    between atoms: _202  and  _205
REMARK   85  A    between atoms: _205  and  _206
REMARK   86  A    between atoms: _209  and  _211
REMARK   87  A    between atoms: _211  and  _212
REMARK   88  A    between atoms: _214  and  _216
REMARK   89  A    between atoms: _216  and  _217
REMARK   90  A    between atoms: _216  and  _219
REMARK   91  A    between atoms: _219  and  _220
REMARK   92  A    between atoms: _220  and  _221
REMARK   93  A    between atoms: _221  and  _222
REMARK   94  A    between atoms: _231  and  _233
REMARK   95  A    between atoms: _233  and  _234
REMARK   96  A    between atoms: _233  and  _236
REMARK   97  A    between atoms: _236  and  _237
REMARK   98  A    between atoms: _242  and  _244
REMARK   99  A    between atoms: _244  and  _245
REMARK  100  A    between atoms: _244  and  _247
REMARK  101  A    between atoms: _247  and  _248
REMARK  102  A    between atoms: _248  and  _249
REMARK  103  A    between atoms: _249  and  _250
REMARK  104  A    between atoms: _259  and  _261
REMARK  105  A    between atoms: _261  and  _262
REMARK  106  A    between atoms: _261  and  _264
REMARK  107  A    between atoms: _264  and  _265
REMARK  108  A    between atoms: _268  and  _270
REMARK  109  A    between atoms: _270  and  _271
REMARK  110  A    between atoms: _270  and  _273
REMARK  111  A    between atoms: _273  and  _274
REMARK  112  A    between atoms: _277  and  _279
REMARK  113  A    between atoms: _279  and  _280
REMARK  114  A    between atoms: _279  and  _282
REMARK  115  A    between atoms: _282  and  _283
REMARK  116  A    between atoms: _286  and  _288
REMARK  117  A    between atoms: _288  and  _289
REMARK  118  A    between atoms: _288  and  _291
REMARK  119  A    between atoms: _291  and  _292
REMARK  120  A    between atoms: _295  and  _297
REMARK  121  A    between atoms: _297  and  _298
REMARK  122  A    between atoms: _300  and  _302
REMARK  123  A    between atoms: _302  and  _303
REMARK  124  A    between atoms: _306  and  _308
REMARK  125  A    between atoms: _308  and  _309
REMARK  126  A    between atoms: _308  and  _311
REMARK  127  A    between atoms: _311  and  _312
REMARK  128  A    between atoms: _315  and  _317
REMARK  129  A    between atoms: _317  and  _318
REMARK  130  A    between atoms: _317  and  _320
REMARK  131  A    between atoms: _320  and  _321
REMARK  132  A    between atoms: _324  and  _326
REMARK  133  A    between atoms: _326  and  _327
REMARK  134  A    between atoms: _326  and  _329
REMARK  135  A    between atoms: _329  and  _330
REMARK  136  A    between atoms: _333  and  _335
REMARK  137  A    between atoms: _335  and  _336
REMARK  138  A    between atoms: _335  and  _338
REMARK  139  A    between atoms: _341  and  _343
REMARK  140  A    between atoms: _343  and  _344
REMARK  141  A    between atoms: _343  and  _346
REMARK  142  A    between atoms: _346  and  _347
REMARK  143  A    between atoms: _350  and  _352
REMARK  144  A    between atoms: _352  and  _353
REMARK  145  A    between atoms: _352  and  _355
REMARK  146  A    between atoms: _355  and  _356
REMARK  147  A    between atoms: _356  and  _357
REMARK  148  A    between atoms: _357  and  _358
REMARK  149  A    between atoms: _358  and  _359
REMARK  150  A    between atoms: _363  and  _365
REMARK  151  A    between atoms: _365  and  _366
REMARK  152  A    between atoms: _365  and  _368
REMARK  153  A    between atoms: _368  and  _369
REMARK  154  A    between atoms: _369  and  _370
REMARK  155  A    between atoms: _372  and  _374
REMARK  156  A    between atoms: _374  and  _375
REMARK  157  A    between atoms: _374  and  _377
REMARK  158  A    between atoms: _377  and  _378
REMARK  159  A    between atoms: _381  and  _383
REMARK  160  A    between atoms: _383  and  _384
REMARK  161  A    between atoms: _386  and  _388
REMARK  162  A    between atoms: _388  and  _389
REMARK  163  A    between atoms: _391  and  _393
REMARK  164  A    between atoms: _393  and  _394
REMARK  165  A    between atoms: _393  and  _396
REMARK  166  A    between atoms: _396  and  _397
REMARK  167  A    between atoms: _400  and  _402
REMARK  168  A    between atoms: _402  and  _403
REMARK  169  A    between atoms: _405  and  _407
REMARK  170  A    between atoms: _407  and  _408
REMARK  171  A    between atoms: _410  and  _412
REMARK  172  A    between atoms: _412  and  _413
REMARK  173  A    between atoms: _412  and  _415
REMARK  174  A    between atoms: _415  and  _416
REMARK  175  A    between atoms: _419  and  _421
REMARK  176  A    between atoms: _421  and  _422
REMARK  177  A    between atoms: _421  and  _424
REMARK  178  A    between atoms: _427  and  _429
REMARK  179  A    between atoms: _429  and  _430
REMARK  180  A    between atoms: _429  and  _432
REMARK  181  A    between atoms: _432  and  _433
REMARK  182  A    between atoms: _437  and  _438
REMARK  183  A    between atoms: _443  and  _445
REMARK  184  A    between atoms: _445  and  _446
REMARK  185  A    between atoms: _445  and  _448
REMARK  186  A    between atoms: _448  and  _449
REMARK  187  A    between atoms: _453  and  _454
REMARK  188  A    between atoms: _459  and  _461
REMARK  189  A    between atoms: _461  and  _462
REMARK  190  A    between atoms: _461  and  _464
REMARK  191  A    between atoms: _464  and  _465
REMARK  192  A    between atoms: _468  and  _470
REMARK  193  A    between atoms: _470  and  _471
REMARK  194  A    between atoms: _470  and  _473
REMARK  195  A    between atoms: _473  and  _474
REMARK  196  A    between atoms: _479  and  _481
REMARK  197  A    between atoms: _481  and  _482
REMARK  198  A    between atoms: _481  and  _484
REMARK  199  A    between atoms: _487  and  _489
REMARK  200  A    between atoms: _489  and  _490
REMARK  201  A    between atoms: _489  and  _492
REMARK  202  A    between atoms: _492  and  _493
REMARK  203  A    between atoms: _496  and  _498
REMARK  204  A    between atoms: _498  and  _499
REMARK  205  A    between atoms: _501  and  _503
REMARK  206  A    between atoms: _503  and  _504
REMARK  207  A    between atoms: _503  and  _506
REMARK  208  A    between atoms: _506  and  _507
REMARK  209  A    between atoms: _507  and  _508
REMARK  210  A    between atoms: _508  and  _509
REMARK  211  A    between atoms: _518  and  _520
REMARK  212  A    between atoms: _520  and  _521
REMARK  213  A    between atoms: _520  and  _523
REMARK  214  A    between atoms: _523  and  _524
REMARK                            x       y       z     vdW  Elec       q    Type
REMARK                         _______ _______ _______ _____ _____    ______ ____
ROOT
ATOM      1  CA  VAL A   1      17.390  -9.766  11.778  0.00  0.00    +0.133 C 
ENDROOT
BRANCH   1   2
ATOM      2  CB  VAL A   1      16.642  -8.940  12.839  0.00  0.00    +0.023 C 
ATOM      3  CG2 VAL A   1      16.076  -9.878  13.901  0.00  0.00    +0.002 C 
ATOM      4  CG1 VAL A   1      15.523  -8.150  12.203  0.00  0.00    +0.002 C 
ENDBRANCH   1   2
BRANCH   1   5
ATOM      5  N   VAL A   1      16.499 -10.733  11.144  0.00  0.00    -0.239 NA
ATOM      6  H   VAL A   1      16.169 -11.549  11.698  0.00  0.00    +0.142 HD
ENDBRANCH   1   5
BRANCH   1   7
ATOM      7  C   VAL A   1      18.524 -10.490  12.497  0.00  0.00    +0.224 C 
ATOM      8  O   VAL A   1      18.450 -11.702  12.721  0.00  0.00    -0.287 OA
ENDBRANCH   1   7
TORSDOF 3
REMARK  Name = ../refined-set-2016/1t7j/1t7j_pocket.pdb
REMARK  214 active torsions:
REMARK  status: ('A' for Active; 'I' for Inactive)
REMARK    1  A    between atoms: _1  and  _3
REMARK    2  A    between atoms: _3  and  _4
REMARK    3  A    between atoms: _3  and  _6
REMARK    4  A    between atoms: _6  and  _7
REMARK    5  A    between atoms: _7  and  _8
REMARK    6  A    between atoms: _8  and  _9
REMARK    7  A    between atoms: _18  and  _20
REMARK    8  A    between atoms: _20  and  _21
REMARK    9  A    between atoms: _20  and  _23
REMARK   10  A    between atoms: _23  and  _24
REMARK   11  A    between atoms: _27  and  _29
REMARK   12  A    between atoms: _29  and  _30
REMARK   13  A    between atoms: _29  and  _32
REMARK   14  A    between atoms: _32  and  _33
REMARK   15  A    between atoms: _36  and  _38
REMARK   16  A    between atoms: _38  and  _39
REMARK   17  A    between atoms: _38  and  _41
REMARK   18  A    between atoms: _41  and  _42
REMARK   19  A    between atoms: _45  and  _47
REMARK   20  A    between atoms: _47  and  _48
REMARK   21  A    between atoms: _47  and  _50
REMARK   22  A    between atoms: _50  and  _51
REMARK   23  A    between atoms: _54  and  _56
REMARK   24  A    between atoms: _56  and  _57
REMARK   25  A    between atoms: _59  and  _61
REMARK   26  A    between atoms: _61  and  _62
REMARK   27  A    between atoms: _65  and  _67
REMARK   28  A    between atoms: _67  and  _68
REMARK   29  A    between atoms: _67  and  _70
REMARK   30  A    between atoms: _70  and  _71
REMARK   31  A    between atoms: _74  and  _76
REMARK   32  A    between atoms: _76  and  _77
REMARK   33  A    between atoms: _76  and  _79
REMARK   34  A    between atoms: _79  and  _80
REMARK   35  A    between atoms: _83  and  _85
REMARK   36  A    between atoms: _85  and  _86
REMARK   37  A    between atoms: _85  and  _88
REMARK   38  A    between atoms: _88  and  _89
REMARK   39  A    between atoms: _92  and  _94
REMARK   40  A    between atoms: _94  and  _95
REMARK   41  A    between atoms: _94  and  _97
REMARK   42  A    between atoms: _100  and  _102
REMARK   43  A    between atoms: _102  and  _103
REMARK   44  A    between atoms: _102  and  _105
REMARK   45  A    between atoms: _105  and  _106
REMARK   46  A    between atoms: _109  and  _111
REMARK   47  A    between atoms: _111  and  _112
REMARK   48  A    between atoms: _114  and  _116
REMARK   49  A    between atoms: _116  and  _117
REMARK   50  A    between atoms: _119  and  _121
REMARK   51  A    between atoms: _121  and  _122
REMARK   52  A    between atoms: _121  and  _124
REMARK   53  A    between atoms: _124  and  _125
REMARK   54  A    between atoms: _128  and  _130
REMARK   55  A    between atoms: _130  and  _131
REMARK   56  A    between atoms: _133  and  _135
REMARK   57  A    between atoms: _135  and  _136
REMARK   58  A    between atoms: _138  and  _140
REMARK   59  A    between atoms: _140  and  _141
REMARK   60  A    between atoms: _140  and  _143
REMARK   61  A    between atoms: _143  and  _144
REMARK   62  A    between atoms: _147  and  _149
REMARK   63  A    between atoms: _149  and  _150
REMARK   64  A    between atoms: _149  and  _152
REMARK   65  A    between atoms: _152  and  _153
REMARK   66  A    between atoms: _156  and  _158
REMARK   67  A    between atoms: _158  and  _159
REMARK   68  A    between atoms: _158  and  _161
REMARK   69  A    between atoms: _161  and  _162
REMARK   70  A    between atoms: _166  and  _167
REMARK   71  A    between atoms: _172  and  _174
REMARK   72  A    between atoms: _174  and  _175
REMARK   73  A    between atoms: _174  and  _177
REMARK   74  A    between atoms: _177  and  _178
REMARK   75  A    between atoms: _181  and  _183
REMARK   76  A    between atoms: _183  and  _184
REMARK   77  A    between atoms: _183  and  _186
REMARK   78  A    between atoms: _186  and  _187
REMARK   79  A    between atoms: _192  and  _194
REMARK   80  A    between atoms: _194  and  _195
REMARK   81  A    between atoms: _194  and  _197
REMARK   82  A    between atoms: _200  and  _202
REMARK   83  A    between atoms: _202  and  _203
REMARK   84  A    between atoms: _202  and  _205
REMARK   85  A    between atoms: _205  and  _206
REMARK   86  A    between atoms: _209  and  _211
REMARK   87  A    between atoms: _211  and  _212
REMARK   88  A    between atoms: _214  and  _216
REMARK   89  A    between atoms: _216  and  _217
REMARK   90  A    between atoms: _216  and  _219
REMARK   91  A    between atoms: _219  and  _220
REMARK   92  A    between atoms: _220  and  _221
REMARK   93  A    between atoms: _221  and  _222
REMARK   94  A    between atoms: _231  and  _233
REMARK   95  A    between atoms: _233  and  _234
REMARK   96  A    between atoms: _233  and  _236
REMARK   97  A    between atoms: _236  and  _237
REMARK   98  A    between atoms: _242  and  _244
REMARK   99  A    between atoms: _244  and  _245
REMARK  100  A    between atoms: _244  and  _247
REMARK  101  A    between atoms: _247  and  _248
REMARK  102  A    between atoms: _248  and  _249
REMARK  103  A    between atoms: _249  and  _250
REMARK  104  A    between atoms: _259  and  _261
REMARK  105  A    between atoms: _261  and  _262
REMARK  106  A    between atoms: _261  and  _264
REMARK  107  A    between atoms: _264  and  _265
REMARK  108  A    between atoms: _268  and  _270
REMARK  109  A    between atoms: _270  and  _271
REMARK  110  A    between atoms: _270  and  _273
REMARK  111  A    between atoms: _273  and  _274
REMARK  112  A    between atoms: _277  and  _279
REMARK  113  A    between atoms: _279  and  _280
REMARK  114  A    between atoms: _279  and  _282
REMARK  115  A    between atoms: _282  and  _283
REMARK  116  A    between atoms: _286  and  _288
REMARK  117  A    between atoms: _288  and  _289
REMARK  118  A    between atoms: _288  and  _291
REMARK  119  A    between atoms: _291  and  _292
REMARK  120  A    between atoms: _295  and  _297
REMARK  121  A    between atoms: _297  and  _298
REMARK  122  A    between atoms: _300  and  _302
REMARK  123  A    between atoms: _302  and  _303
REMARK  124  A    between atoms: _306  and  _308
REMARK  125  A    between atoms: _308  and  _309
REMARK  126  A    between atoms: _308  and  _311
REMARK  127  A    between atoms: _311  and  _312
REMARK  128  A    between atoms: _315  and  _317
REMARK  129  A    between atoms: _317  and  _318
REMARK  130  A    between atoms: _317  and  _320
REMARK  131  A    between atoms: _320  and  _321
REMARK  132  A    between atoms: _324  and  _326
REMARK  133  A    between atoms: _326  and  _327
REMARK  134  A    between atoms: _326  and  _329
REMARK  135  A    between atoms: _329  and  _330
REMARK  136  A    between atoms: _333  and  _335
REMARK  137  A    between atoms: _335  and  _336
REMARK  138  A    between atoms: _335  and  _338
REMARK  139  A    between atoms: _341  and  _343
REMARK  140  A    between atoms: _343  and  _344
REMARK  141  A    between atoms: _343  and  _346
REMARK  142  A    between atoms: _346  and  _347
REMARK  143  A    between atoms: _350  and  _352
REMARK  144  A    between atoms: _352  and  _353
REMARK  145  A    between atoms: _352  and  _355
REMARK  146  A    between atoms: _355  and  _356
REMARK  147  A    between atoms: _356  and  _357
REMARK  148  A    between atoms: _357  and  _358
REMARK  149  A    between atoms: _358  and  _359
REMARK  150  A    between atoms: _363  and  _365
REMARK  151  A    between atoms: _365  and  _366
REMARK  152  A    between atoms: _365  and  _368
REMARK  153  A    between atoms: _368  and  _369
REMARK  154  A    between atoms: _369  and  _370
REMARK  155  A    between atoms: _372  and  _374
REMARK  156  A    between atoms: _374  and  _375
REMARK  157  A    between atoms: _374  and  _377
REMARK  158  A    between atoms: _377  and  _378
REMARK  159  A    between atoms: _381  and  _383
REMARK  160  A    between atoms: _383  and  _384
REMARK  161  A    between atoms: _386  and  _388
REMARK  162  A    between atoms: _388  and  _389
REMARK  163  A    between atoms: _391  and  _393
REMARK  164  A    between atoms: _393  and  _394
REMARK  165  A    between atoms: _393  and  _396
REMARK  166  A    between atoms: _396  and  _397
REMARK  167  A    between atoms: _400  and  _402
REMARK  168  A    between atoms: _402  and  _403
REMARK  169  A    between atoms: _405  and  _407
REMARK  170  A    between atoms: _407  and  _408
REMARK  171  A    between atoms: _410  and  _412
REMARK  172  A    between atoms: _412  and  _413
REMARK  173  A    between atoms: _412  and  _415
REMARK  174  A    between atoms: _415  and  _416
REMARK  175  A    between atoms: _419  and  _421
REMARK  176  A    between atoms: _421  and  _422
REMARK  177  A    between atoms: _421  and  _424
REMARK  178  A    between atoms: _427  and  _429
REMARK  179  A    between atoms: _429  and  _430
REMARK  180  A    between atoms: _429  and  _432
REMARK  181  A    between atoms: _432  and  _433
REMARK  182  A    between atoms: _437  and  _438
REMARK  183  A    between atoms: _443  and  _445
REMARK  184  A    between atoms: _445  and  _446
REMARK  185  A    between atoms: _445  and  _448
REMARK  186  A    between atoms: _448  and  _449
REMARK  187  A    between atoms: _453  and  _454
REMARK  188  A    between atoms: _459  and  _461
REMARK  189  A    between atoms: _461  and  _462
REMARK  190  A    between atoms: _461  and  _464
REMARK  191  A    between atoms: _464  and  _465
REMARK  192  A    between atoms: _468  and  _470
REMARK  193  A    between atoms: _470  and  _471
REMARK  194  A    between atoms: _470  and  _473
REMARK  195  A    between atoms: _473  and  _474
REMARK  196  A    between atoms: _479  and  _481
REMARK  197  A    between atoms: _481  and  _482
REMARK  198  A    between atoms: _481  and  _484
REMARK  199  A    between atoms: _487  and  _489
REMARK  200  A    between atoms: _489  and  _490
REMARK  201  A    between atoms: _489  and  _492
REMARK  202  A    between atoms: _492  and  _493
REMARK  203  A    between atoms: _496  and  _498
REMARK  204  A    between atoms: _498  and  _499
REMARK  205  A    between atoms: _501  and  _503
REMARK  206  A    between atoms: _503  and  _504
REMARK  207  A    between atoms: _503  and  _506
REMARK  208  A    between atoms: _506  and  _507
REMARK  209  A    between atoms: _507  and  _508
REMARK  210  A    between atoms: _508  and  _509
REMARK  211  A    between atoms: _518  and  _520
REMARK  212  A    between atoms: _520  and  _521
REMARK  213  A    between atoms: _520  and  _523
REMARK  214  A    between atoms: _523  and  _524
REMARK                            x       y       z     vdW  Elec       q    Type
REMARK                         _______ _______ _______ _____ _____    ______ ____
ROOT
ATOM      1  CA  LEU A   1      18.330  -6.304  16.464  0.00  0.00    +0.133 C 
ENDROOT
BRANCH   1   2
ATOM      2  N   LEU A   1      18.606  -5.515  17.660  0.00  0.00    -0.239 NA
ATOM      3  H   LEU A   1      17.922  -4.787  17.950  0.00  0.00    +0.142 HD
ENDBRANCH   1   2
BRANCH   1   4
ATOM      4  C   LEU A   1      18.650  -5.489  15.231  0.00  0.00    +0.224 C 
ATOM      5  O   LEU A   1      18.172  -4.359  15.075  0.00  0.00    -0.287 OA
ENDBRANCH   1   4
BRANCH   1   6
ATOM      6  CB  LEU A   1      16.859  -6.731  16.415  0.00  0.00    +0.025 C 
BRANCH   6   7
ATOM      7  CG  LEU A   1      16.384  -7.476  17.660  0.00  0.00    +0.002 C 
ATOM      8  CD2 LEU A   1      17.242  -8.702  17.878  0.00  0.00    +0.000 C 
ATOM      9  CD1 LEU A   1      14.932  -7.849  17.518  0.00  0.00    +0.000 C 
ENDBRANCH   6   7
ENDBRANCH   1   6
TORSDOF 4
REMARK  Name = ../refined-set-2016/1t7j/1t7j_pocket.pdb
REMARK  214 active torsions:
REMARK  status: ('A' for Active; 'I' for Inactive)
REMARK    1  A    between atoms: _1  and  _3
REMARK    2  A    between atoms: _3  and  _4
REMARK    3  A    between atoms: _3  and  _6
REMARK    4  A    between atoms: _6  and  _7
REMARK    5  A    between atoms: _7  and  _8
REMARK    6  A    between atoms: _8  and  _9
REMARK    7  A    between atoms: _18  and  _20
REMARK    8  A    between atoms: _20  and  _21
REMARK    9  A    between atoms: _20  and  _23
REMARK   10  A    between atoms: _23  and  _24
REMARK   11  A    between atoms: _27  and  _29
REMARK   12  A    between atoms: _29  and  _30
REMARK   13  A    between atoms: _29  and  _32
REMARK   14  A    between atoms: _32  and  _33
REMARK   15  A    between atoms: _36  and  _38
REMARK   16  A    between atoms: _38  and  _39
REMARK   17  A    between atoms: _38  and  _41
REMARK   18  A    between atoms: _41  and  _42
REMARK   19  A    between atoms: _45  and  _47
REMARK   20  A    between atoms: _47  and  _48
REMARK   21  A    between atoms: _47  and  _50
REMARK   22  A    between atoms: _50  and  _51
REMARK   23  A    between atoms: _54  and  _56
REMARK   24  A    between atoms: _56  and  _57
REMARK   25  A    between atoms: _59  and  _61
REMARK   26  A    between atoms: _61  and  _62
REMARK   27  A    between atoms: _65  and  _67
REMARK   28  A    between atoms: _67  and  _68
REMARK   29  A    between atoms: _67  and  _70
REMARK   30  A    between atoms: _70  and  _71
REMARK   31  A    between atoms: _74  and  _76
REMARK   32  A    between atoms: _76  and  _77
REMARK   33  A    between atoms: _76  and  _79
REMARK   34  A    between atoms: _79  and  _80
REMARK   35  A    between atoms: _83  and  _85
REMARK   36  A    between atoms: _85  and  _86
REMARK   37  A    between atoms: _85  and  _88
REMARK   38  A    between atoms: _88  and  _89
REMARK   39  A    between atoms: _92  and  _94
REMARK   40  A    between atoms: _94  and  _95
REMARK   41  A    between atoms: _94  and  _97
REMARK   42  A    between atoms: _100  and  _102
REMARK   43  A    between atoms: _102  and  _103
REMARK   44  A    between atoms: _102  and  _105
REMARK   45  A    between atoms: _105  and  _106
REMARK   46  A    between atoms: _109  and  _111
REMARK   47  A    between atoms: _111  and  _112
REMARK   48  A    between atoms: _114  and  _116
REMARK   49  A    between atoms: _116  and  _117
REMARK   50  A    between atoms: _119  and  _121
REMARK   51  A    between atoms: _121  and  _122
REMARK   52  A    between atoms: _121  and  _124
REMARK   53  A    between atoms: _124  and  _125
REMARK   54  A    between atoms: _128  and  _130
REMARK   55  A    between atoms: _130  and  _131
REMARK   56  A    between atoms: _133  and  _135
REMARK   57  A    between atoms: _135  and  _136
REMARK   58  A    between atoms: _138  and  _140
REMARK   59  A    between atoms: _140  and  _141
REMARK   60  A    between atoms: _140  and  _143
REMARK   61  A    between atoms: _143  and  _144
REMARK   62  A    between atoms: _147  and  _149
REMARK   63  A    between atoms: _149  and  _150
REMARK   64  A    between atoms: _149  and  _152
REMARK   65  A    between atoms: _152  and  _153
REMARK   66  A    between atoms: _156  and  _158
REMARK   67  A    between atoms: _158  and  _159
REMARK   68  A    between atoms: _158  and  _161
REMARK   69  A    between atoms: _161  and  _162
REMARK   70  A    between atoms: _166  and  _167
REMARK   71  A    between atoms: _172  and  _174
REMARK   72  A    between atoms: _174  and  _175
REMARK   73  A    between atoms: _174  and  _177
REMARK   74  A    between atoms: _177  and  _178
REMARK   75  A    between atoms: _181  and  _183
REMARK   76  A    between atoms: _183  and  _184
REMARK   77  A    between atoms: _183  and  _186
REMARK   78  A    between atoms: _186  and  _187
REMARK   79  A    between atoms: _192  and  _194
REMARK   80  A    between atoms: _194  and  _195
REMARK   81  A    between atoms: _194  and  _197
REMARK   82  A    between atoms: _200  and  _202
REMARK   83  A    between atoms: _202  and  _203
REMARK   84  A    between atoms: _202  and  _205
REMARK   85  A    between atoms: _205  and  _206
REMARK   86  A    between atoms: _209  and  _211
REMARK   87  A    between atoms: _211  and  _212
REMARK   88  A    between atoms: _214  and  _216
REMARK   89  A    between atoms: _216  and  _217
REMARK   90  A    between atoms: _216  and  _219
REMARK   91  A    between atoms: _219  and  _220
REMARK   92  A    between atoms: _220  and  _221
REMARK   93  A    between atoms: _221  and  _222
REMARK   94  A    between atoms: _231  and  _233
REMARK   95  A    between atoms: _233  and  _234
REMARK   96  A    between atoms: _233  and  _236
REMARK   97  A    between atoms: _236  and  _237
REMARK   98  A    between atoms: _242  and  _244
REMARK   99  A    between atoms: _244  and  _245
REMARK  100  A    between atoms: _244  and  _247
REMARK  101  A    between atoms: _247  and  _248
REMARK  102  A    between atoms: _248  and  _249
REMARK  103  A    between atoms: _249  and  _250
REMARK  104  A    between atoms: _259  and  _261
REMARK  105  A    between atoms: _261  and  _262
REMARK  106  A    between atoms: _261  and  _264
REMARK  107  A    between atoms: _264  and  _265
REMARK  108  A    between atoms: _268  and  _270
REMARK  109  A    between atoms: _270  and  _271
REMARK  110  A    between atoms: _270  and  _273
REMARK  111  A    between atoms: _273  and  _274
REMARK  112  A    between atoms: _277  and  _279
REMARK  113  A    between atoms: _279  and  _280
REMARK  114  A    between atoms: _279  and  _282
REMARK  115  A    between atoms: _282  and  _283
REMARK  116  A    between atoms: _286  and  _288
REMARK  117  A    between atoms: _288  and  _289
REMARK  118  A    between atoms: _288  and  _291
REMARK  119  A    between atoms: _291  and  _292
REMARK  120  A    between atoms: _295  and  _297
REMARK  121  A    between atoms: _297  and  _298
REMARK  122  A    between atoms: _300  and  _302
REMARK  123  A    between atoms: _302  and  _303
REMARK  124  A    between atoms: _306  and  _308
REMARK  125  A    between atoms: _308  and  _309
REMARK  126  A    between atoms: _308  and  _311
REMARK  127  A    between atoms: _311  and  _312
REMARK  128  A    between atoms: _315  and  _317
REMARK  129  A    between atoms: _317  and  _318
REMARK  130  A    between atoms: _317  and  _320
REMARK  131  A    between atoms: _320  and  _321
REMARK  132  A    between atoms: _324  and  _326
REMARK  133  A    between atoms: _326  and  _327
REMARK  134  A    between atoms: _326  and  _329
REMARK  135  A    between atoms: _329  and  _330
REMARK  136  A    between atoms: _333  and  _335
REMARK  137  A    between atoms: _335  and  _336
REMARK  138  A    between atoms: _335  and  _338
REMARK  139  A    between atoms: _341  and  _343
REMARK  140  A    between atoms: _343  and  _344
REMARK  141  A    between atoms: _343  and  _346
REMARK  142  A    between atoms: _346  and  _347
REMARK  143  A    between atoms: _350  and  _352
REMARK  144  A    between atoms: _352  and  _353
REMARK  145  A    between atoms: _352  and  _355
REMARK  146  A    between atoms: _355  and  _356
REMARK  147  A    between atoms: _356  and  _357
REMARK  148  A    between atoms: _357  and  _358
REMARK  149  A    between atoms: _358  and  _359
REMARK  150  A    between atoms: _363  and  _365
REMARK  151  A    between atoms: _365  and  _366
REMARK  152  A    between atoms: _365  and  _368
REMARK  153  A    between atoms: _368  and  _369
REMARK  154  A    between atoms: _369  and  _370
REMARK  155  A    between atoms: _372  and  _374
REMARK  156  A    between atoms: _374  and  _375
REMARK  157  A    between atoms: _374  and  _377
REMARK  158  A    between atoms: _377  and  _378
REMARK  159  A    between atoms: _381  and  _383
REMARK  160  A    between atoms: _383  and  _384
REMARK  161  A    between atoms: _386  and  _388
REMARK  162  A    between atoms: _388  and  _389
REMARK  163  A    between atoms: _391  and  _393
REMARK  164  A    between atoms: _393  and  _394
REMARK  165  A    between atoms: _393  and  _396
REMARK  166  A    between atoms: _396  and  _397
REMARK  167  A    between atoms: _400  and  _402
REMARK  168  A    between atoms: _402  and  _403
REMARK  169  A    between atoms: _405  and  _407
REMARK  170  A    between atoms: _407  and  _408
REMARK  171  A    between atoms: _410  and  _412
REMARK  172  A    between atoms: _412  and  _413
REMARK  173  A    between atoms: _412  and  _415
REMARK  174  A    between atoms: _415  and  _416
REMARK  175  A    between atoms: _419  and  _421
REMARK  176  A    between atoms: _421  and  _422
REMARK  177  A    between atoms: _421  and  _424
REMARK  178  A    between atoms: _427  and  _429
REMARK  179  A    between atoms: _429  and  _430
REMARK  180  A    between atoms: _429  and  _432
REMARK  181  A    between atoms: _432  and  _433
REMARK  182  A    between atoms: _437  and  _438
REMARK  183  A    between atoms: _443  and  _445
REMARK  184  A    between atoms: _445  and  _446
REMARK  185  A    between atoms: _445  and  _448
REMARK  186  A    between atoms: _448  and  _449
REMARK  187  A    between atoms: _453  and  _454
REMARK  188  A    between atoms: _459  and  _461
REMARK  189  A    between atoms: _461  and  _462
REMARK  190  A    between atoms: _461  and  _464
REMARK  191  A    between atoms: _464  and  _465
REMARK  192  A    between atoms: _468  and  _470
REMARK  193  A    between atoms: _470  and  _471
REMARK  194  A    between atoms: _470  and  _473
REMARK  195  A    between atoms: _473  and  _474
REMARK  196  A    between atoms: _479  and  _481
REMARK  197  A    between atoms: _481  and  _482
REMARK  198  A    between atoms: _481  and  _484
REMARK  199  A    between atoms: _487  and  _489
REMARK  200  A    between atoms: _489  and  _490
REMARK  201  A    between atoms: _489  and  _492
REMARK  202  A    between atoms: _492  and  _493
REMARK  203  A    between atoms: _496  and  _498
REMARK  204  A    between atoms: _498  and  _499
REMARK  205  A    between atoms: _501  and  _503
REMARK  206  A    between atoms: _503  and  _504
REMARK  207  A    between atoms: _503  and  _506
REMARK  208  A    between atoms: _506  and  _507
REMARK  209  A    between atoms: _507  and  _508
REMARK  210  A    between atoms: _508  and  _509
REMARK  211  A    between atoms: _518  and  _520
REMARK  212  A    between atoms: _520  and  _521
REMARK  213  A    between atoms: _520  and  _523
REMARK  214  A    between atoms: _523  and  _524
REMARK                            x       y       z     vdW  Elec       q    Type
REMARK                         _______ _______ _______ _____ _____    ______ ____
ROOT
ATOM      1  CA  VAL A   6      13.114   1.688  16.508  0.00  0.00    +0.149 C 
ENDROOT
BRANCH   1   2
ATOM      2  C   VAL A   6      13.736   1.343  17.859  0.00  0.00    +0.241 C 
ATOM      3  N   ILE A   7      13.524   2.226  18.833  0.00  0.00    -0.297 N 
ATOM      4  H   ILE A   7      12.990   3.094  18.626  0.00  0.00    +0.150 HD
ATOM      5  O   VAL A   6      14.383   0.299  18.017  0.00  0.00    -0.273 OA
BRANCH   3   6
ATOM      6  CA  ILE A   7      14.022   2.003  20.174  0.00  0.00    +0.149 C 
BRANCH   6   7
ATOM      7  C   ILE A   7      12.863   1.392  20.945  0.00  0.00    +0.241 C 
ATOM      8  N   GLY A   8      13.022   0.124  21.306  0.00  0.00    -0.295 N 
ATOM      9  H   GLY A   8      13.909  -0.369  21.077  0.00  0.00    +0.150 HD
ATOM     10  O   ILE A   7      11.841   2.047  21.192  0.00  0.00    -0.273 OA
BRANCH   8  11
ATOM     11  CA  GLY A   8      11.975  -0.578  22.014  0.00  0.00    +0.176 C 
BRANCH  11  12
ATOM     12  C   GLY A   8      12.021  -0.510  23.520  0.00  0.00    +0.243 C 
ATOM     13  N   ARG A   9      11.010  -1.110  24.131  0.00  0.00    -0.297 N 
ATOM     14  H   ARG A   9      10.285  -1.582  23.554  0.00  0.00    +0.150 HD
ATOM     15  O   GLY A   8      12.943   0.040  24.115  0.00  0.00    -0.273 OA
BRANCH  13  16
ATOM     16  CA  ARG A   9      10.877  -1.133  25.573  0.00  0.00    +0.149 C 
BRANCH  16  17
ATOM     17  C   ARG A   9      12.104  -1.648  26.304  0.00  0.00    +0.241 C 
ATOM     18  O   ARG A   9      12.411  -1.167  27.395  0.00  0.00    -0.273 OA
ATOM     19  N   ASN A  10      12.813  -2.606  25.709  0.00  0.00    -0.298 N 
ATOM     20  H   ASN A  10      12.525  -2.958  24.774  0.00  0.00    +0.150 HD
BRANCH  19  21
ATOM     21  CA  ASN A  10      13.991  -3.164  26.363  0.00  0.00    +0.146 C 
BRANCH  21  22
ATOM     22  C   ASN A  10      14.975  -2.056  26.734  0.00  0.00    +0.227 C 
ATOM     23  O   ASN A  10      15.576  -2.088  27.802  0.00  0.00    -0.286 OA
ENDBRANCH  21  22
BRANCH  21  24
ATOM     24  CB  ASN A  10      14.671  -4.221  25.475  0.00  0.00    +0.112 C 
BRANCH  24  25
ATOM     25  CG  ASN A  10      15.527  -3.617  24.391  0.00  0.00    +0.222 C 
ATOM     26  ND2 ASN A  10      16.823  -3.925  24.418  0.00  0.00    -0.329 N 
ATOM     27 HD21 ASN A  10      17.194  -4.549  25.163  0.00  0.00    +0.145 HD
ATOM     28 HD22 ASN A  10      17.464  -3.541  23.694  0.00  0.00    +0.145 HD
ATOM     29  OD1 ASN A  10      15.037  -2.884  23.533  0.00  0.00    -0.275 OA
ENDBRANCH  24  25
ENDBRANCH  21  24
ENDBRANCH  19  21
ENDBRANCH  16  17
BRANCH  16  30
ATOM     30  CB  ARG A   9       9.651  -1.957  25.972  0.00  0.00    +0.033 C 
BRANCH  30  31
ATOM     31  CG  ARG A   9       8.331  -1.352  25.501  0.00  0.00    +0.045 C 
BRANCH  31  32
ATOM     32  CD  ARG A   9       7.122  -2.076  26.082  0.00  0.00    +0.174 C 
BRANCH  32  33
ATOM     33  NE  ARG A   9       7.067  -3.484  25.706  0.00  0.00    -0.265 N 
ATOM     34  CZ  ARG A   9       7.502  -4.487  26.467  0.00  0.00    +0.342 C 
ATOM     35  NH2 ARG A   9       8.031  -4.243  27.663  0.00  0.00    -0.292 N 
ATOM     36 HH21 ARG A   9       8.369  -5.030  28.253  0.00  0.00    +0.255 HD
ATOM     37 HH22 ARG A   9       8.107  -3.265  28.008  0.00  0.00    +0.255 HD
ATOM     38  NH1 ARG A   9       7.408  -5.737  26.028  0.00  0.00    -0.292 N 
ATOM     39 HH11 ARG A   9       7.747  -6.523  26.619  0.00  0.00    +0.255 HD
ATOM     40 HH12 ARG A   9       6.996  -5.930  25.093  0.00  0.00    +0.255 HD
ATOM     41  HE  ARG A   9       6.660  -3.722  24.779  0.00  0.00    +0.259 HD
ENDBRANCH  32  33
ENDBRANCH  31  32
ENDBRANCH  30  31
ENDBRANCH  16  30
ENDBRANCH  13  16
ENDBRANCH  11  12
ENDBRANCH   8  11
ENDBRANCH   6   7
BRANCH   6  42
ATOM     42  CB  ILE A   7      14.463   3.306  20.850  0.00  0.00    +0.027 C 
ATOM     43  CG2 ILE A   7      15.104   2.989  22.193  0.00  0.00    +0.002 C 
BRANCH  42  44
ATOM     44  CG1 ILE A   7      15.477   4.033  19.967  0.00  0.00    +0.002 C 
ATOM     45  CD1 ILE A   7      16.726   3.214  19.662  0.00  0.00    +0.000 C 
ENDBRANCH  42  44
ENDBRANCH   6  42
ENDBRANCH   3   6
ENDBRANCH   1   2
BRANCH   1  47
ATOM     46  C   ASN A   5      14.050   2.717  14.545  0.00  0.00    +0.241 C 
ATOM     47  N   VAL A   6      14.029   1.697  15.389  0.00  0.00    -0.297 N 
ATOM     48  H   VAL A   6      14.676   0.896  15.246  0.00  0.00    +0.150 HD
ATOM     49  O   ASN A   5      13.335   3.710  14.680  0.00  0.00    -0.273 OA
BRANCH  46  50
ATOM     50  CA  ASN A   5      15.023   2.611  13.382  0.00  0.00    +0.158 C 
BRANCH  50  52
ATOM     51  C   THR A   4      13.425   2.185  11.618  0.00  0.00    +0.243 C 
ATOM     52  N   ASN A   5      14.303   3.012  12.180  0.00  0.00    -0.297 N 
ATOM     53  H   ASN A   5      14.476   3.948  11.760  0.00  0.00    +0.150 HD
ATOM     54  O   THR A   4      13.214   1.051  12.053  0.00  0.00    -0.273 OA
BRANCH  51  55
ATOM     55  CA  THR A   4      12.656   2.715  10.399  0.00  0.00    +0.176 C 
BRANCH  55  57
ATOM     56  C   PRO A   3      12.585   1.921   8.078  0.00  0.00    +0.241 C 
ATOM     57  N   THR A   4      12.394   1.699   9.380  0.00  0.00    -0.295 N 
ATOM     58  H   THR A   4      12.045   0.767   9.682  0.00  0.00    +0.150 HD
ATOM     59  O   PRO A   3      13.019   2.977   7.621  0.00  0.00    -0.273 OA
BRANCH  56  66
ATOM     60  C   THR A   2      13.757  -0.906   8.170  0.00  0.00    +0.246 C 
ATOM     61  O   THR A   2      14.752  -0.226   7.931  0.00  0.00    -0.273 OA
ATOM     62  N   PRO A   3      12.521  -0.510   7.823  0.00  0.00    -0.272 N 
ATOM     63  CD  PRO A   3      11.307  -1.336   7.892  0.00  0.00    +0.094 C 
ATOM     64  CG  PRO A   3      10.489  -0.775   6.767  0.00  0.00    +0.024 C 
ATOM     65  CB  PRO A   3      10.746   0.703   6.889  0.00  0.00    +0.031 C 
ATOM     66  CA  PRO A   3      12.244   0.767   7.160  0.00  0.00    +0.152 C 
BRANCH  60  67
ATOM     67  CA  THR A   2      13.888  -2.262   8.860  0.00  0.00    +0.176 C 
BRANCH  67  69
ATOM     68  C   PRO A   1      14.939  -3.773   7.299  0.00  0.00    +0.239 C 
ATOM     69  N   THR A   2      15.047  -2.981   8.358  0.00  0.00    -0.295 N 
ATOM     70  H   THR A   2      15.967  -2.874   8.832  0.00  0.00    +0.150 HD
ATOM     71  O   PRO A   1      13.877  -3.941   6.702  0.00  0.00    -0.274 OA
BRANCH  68  76
ATOM     72  N   PRO A   1      16.822  -5.361   7.829  0.00  0.00    -0.210 NA
ATOM     73  CD  PRO A   1      16.605  -6.773   7.460  0.00  0.00    +0.089 C 
ATOM     74  CG  PRO A   1      15.561  -6.667   6.352  0.00  0.00    +0.021 C 
ATOM     75  CB  PRO A   1      15.952  -5.404   5.659  0.00  0.00    +0.028 C 
ATOM     76  CA  PRO A   1      16.207  -4.471   6.839  0.00  0.00    +0.149 C 
ENDBRANCH  68  76
ENDBRANCH  67  69
BRANCH  67  77
ATOM     77  CB  THR A   2      13.964  -2.036  10.390  0.00  0.00    +0.137 C 
ATOM     78  CG2 THR A   2      15.265  -1.309  10.780  0.00  0.00    +0.034 C 
BRANCH  77  79
ATOM     79  OG1 THR A   2      12.843  -1.247  10.800  0.00  0.00    -0.382 OA
ATOM     80  HG1 THR A   2      12.885  -1.099  11.778  0.00  0.00    +0.210 HD
ENDBRANCH  77  79
ENDBRANCH  67  77
ENDBRANCH  60  67
ENDBRANCH  56  66
ENDBRANCH  55  57
BRANCH  55  81
ATOM     81  CB  THR A   4      11.332   3.297  10.952  0.00  0.00    +0.137 C 
ATOM     82  CG2 THR A   4      11.616   4.536  11.799  0.00  0.00    +0.034 C 
BRANCH  81  83
ATOM     83  OG1 THR A   4      10.445   3.630   9.872  0.00  0.00    -0.382 OA
ATOM     84  HG1 THR A   4       9.604   4.000  10.240  0.00  0.00    +0.210 HD
ENDBRANCH  81  83
ENDBRANCH  55  81
ENDBRANCH  51  55
ENDBRANCH  50  52
BRANCH  50  85
ATOM     85  CB  ASN A   5      16.219   3.518  13.642  0.00  0.00    +0.114 C 
BRANCH  85  86
ATOM     86  CG  ASN A   5      17.314   3.331  12.619  0.00  0.00    +0.222 C 
ATOM     87  OD1 ASN A   5      17.700   2.200  12.310  0.00  0.00    -0.275 OA
ATOM     88  ND2 ASN A   5      17.826   4.438  12.088  0.00  0.00    -0.329 N 
ATOM     89 HD21 ASN A   5      17.467   5.369  12.381  0.00  0.00    +0.145 HD
ATOM     90 HD22 ASN A   5      18.585   4.372  11.380  0.00  0.00    +0.145 HD
ENDBRANCH  85  86
ENDBRANCH  50  85
ENDBRANCH  46  50
ENDBRANCH   1  47
BRANCH   1  91
ATOM     91  CB  VAL A   6      11.953   0.704  16.246  0.00  0.00    +0.027 C 
ATOM     92  CG2 VAL A   6      11.146   0.512  17.513  0.00  0.00    +0.002 C 
ATOM     93  CG1 VAL A   6      11.056   1.240  15.146  0.00  0.00    +0.002 C 
ENDBRANCH   1  91
TORSDOF 33
REMARK  Name = ../refined-set-2016/1t7j/1t7j_pocket.pdb
REMARK  214 active torsions:
REMARK  status: ('A' for Active; 'I' for Inactive)
REMARK    1  A    between atoms: _1  and  _3
REMARK    2  A    between atoms: _3  and  _4
REMARK    3  A    between atoms: _3  and  _6
REMARK    4  A    between atoms: _6  and  _7
REMARK    5  A    between atoms: _7  and  _8
REMARK    6  A    between atoms: _8  and  _9
REMARK    7  A    between atoms: _18  and  _20
REMARK    8  A    between atoms: _20  and  _21
REMARK    9  A    between atoms: _20  and  _23
REMARK   10  A    between atoms: _23  and  _24
REMARK   11  A    between atoms: _27  and  _29
REMARK   12  A    between atoms: _29  and  _30
REMARK   13  A    between atoms: _29  and  _32
REMARK   14  A    between atoms: _32  and  _33
REMARK   15  A    between atoms: _36  and  _38
REMARK   16  A    between atoms: _38  and  _39
REMARK   17  A    between atoms: _38  and  _41
REMARK   18  A    between atoms: _41  and  _42
REMARK   19  A    between atoms: _45  and  _47
REMARK   20  A    between atoms: _47  and  _48
REMARK   21  A    between atoms: _47  and  _50
REMARK   22  A    between atoms: _50  and  _51
REMARK   23  A    between atoms: _54  and  _56
REMARK   24  A    between atoms: _56  and  _57
REMARK   25  A    between atoms: _59  and  _61
REMARK   26  A    between atoms: _61  and  _62
REMARK   27  A    between atoms: _65  and  _67
REMARK   28  A    between atoms: _67  and  _68
REMARK   29  A    between atoms: _67  and  _70
REMARK   30  A    between atoms: _70  and  _71
REMARK   31  A    between atoms: _74  and  _76
REMARK   32  A    between atoms: _76  and  _77
REMARK   33  A    between atoms: _76  and  _79
REMARK   34  A    between atoms: _79  and  _80
REMARK   35  A    between atoms: _83  and  _85
REMARK   36  A    between atoms: _85  and  _86
REMARK   37  A    between atoms: _85  and  _88
REMARK   38  A    between atoms: _88  and  _89
REMARK   39  A    between atoms: _92  and  _94
REMARK   40  A    between atoms: _94  and  _95
REMARK   41  A    between atoms: _94  and  _97
REMARK   42  A    between atoms: _100  and  _102
REMARK   43  A    between atoms: _102  and  _103
REMARK   44  A    between atoms: _102  and  _105
REMARK   45  A    between atoms: _105  and  _106
REMARK   46  A    between atoms: _109  and  _111
REMARK   47  A    between atoms: _111  and  _112
REMARK   48  A    between atoms: _114  and  _116
REMARK   49  A    between atoms: _116  and  _117
REMARK   50  A    between atoms: _119  and  _121
REMARK   51  A    between atoms: _121  and  _122
REMARK   52  A    between atoms: _121  and  _124
REMARK   53  A    between atoms: _124  and  _125
REMARK   54  A    between atoms: _128  and  _130
REMARK   55  A    between atoms: _130  and  _131
REMARK   56  A    between atoms: _133  and  _135
REMARK   57  A    between atoms: _135  and  _136
REMARK   58  A    between atoms: _138  and  _140
REMARK   59  A    between atoms: _140  and  _141
REMARK   60  A    between atoms: _140  and  _143
REMARK   61  A    between atoms: _143  and  _144
REMARK   62  A    between atoms: _147  and  _149
REMARK   63  A    between atoms: _149  and  _150
REMARK   64  A    between atoms: _149  and  _152
REMARK   65  A    between atoms: _152  and  _153
REMARK   66  A    between atoms: _156  and  _158
REMARK   67  A    between atoms: _158  and  _159
REMARK   68  A    between atoms: _158  and  _161
REMARK   69  A    between atoms: _161  and  _162
REMARK   70  A    between atoms: _166  and  _167
REMARK   71  A    between atoms: _172  and  _174
REMARK   72  A    between atoms: _174  and  _175
REMARK   73  A    between atoms: _174  and  _177
REMARK   74  A    between atoms: _177  and  _178
REMARK   75  A    between atoms: _181  and  _183
REMARK   76  A    between atoms: _183  and  _184
REMARK   77  A    between atoms: _183  and  _186
REMARK   78  A    between atoms: _186  and  _187
REMARK   79  A    between atoms: _192  and  _194
REMARK   80  A    between atoms: _194  and  _195
REMARK   81  A    between atoms: _194  and  _197
REMARK   82  A    between atoms: _200  and  _202
REMARK   83  A    between atoms: _202  and  _203
REMARK   84  A    between atoms: _202  and  _205
REMARK   85  A    between atoms: _205  and  _206
REMARK   86  A    between atoms: _209  and  _211
REMARK   87  A    between atoms: _211  and  _212
REMARK   88  A    between atoms: _214  and  _216
REMARK   89  A    between atoms: _216  and  _217
REMARK   90  A    between atoms: _216  and  _219
REMARK   91  A    between atoms: _219  and  _220
REMARK   92  A    between atoms: _220  and  _221
REMARK   93  A    between atoms: _221  and  _222
REMARK   94  A    between atoms: _231  and  _233
REMARK   95  A    between atoms: _233  and  _234
REMARK   96  A    between atoms: _233  and  _236
REMARK   97  A    between atoms: _236  and  _237
REMARK   98  A    between atoms: _242  and  _244
REMARK   99  A    between atoms: _244  and  _245
REMARK  100  A    between atoms: _244  and  _247
REMARK  101  A    between atoms: _247  and  _248
REMARK  102  A    between atoms: _248  and  _249
REMARK  103  A    between atoms: _249  and  _250
REMARK  104  A    between atoms: _259  and  _261
REMARK  105  A    between atoms: _261  and  _262
REMARK  106  A    between atoms: _261  and  _264
REMARK  107  A    between atoms: _264  and  _265
REMARK  108  A    between atoms: _268  and  _270
REMARK  109  A    between atoms: _270  and  _271
REMARK  110  A    between atoms: _270  and  _273
REMARK  111  A    between atoms: _273  and  _274
REMARK  112  A    between atoms: _277  and  _279
REMARK  113  A    between atoms: _279  and  _280
REMARK  114  A    between atoms: _279  and  _282
REMARK  115  A    between atoms: _282  and  _283
REMARK  116  A    between atoms: _286  and  _288
REMARK  117  A    between atoms: _288  and  _289
REMARK  118  A    between atoms: _288  and  _291
REMARK  119  A    between atoms: _291  and  _292
REMARK  120  A    between atoms: _295  and  _297
REMARK  121  A    between atoms: _297  and  _298
REMARK  122  A    between atoms: _300  and  _302
REMARK  123  A    between atoms: _302  and  _303
REMARK  124  A    between atoms: _306  and  _308
REMARK  125  A    between atoms: _308  and  _309
REMARK  126  A    between atoms: _308  and  _311
REMARK  127  A    between atoms: _311  and  _312
REMARK  128  A    between atoms: _315  and  _317
REMARK  129  A    between atoms: _317  and  _318
REMARK  130  A    between atoms: _317  and  _320
REMARK  131  A    between atoms: _320  and  _321
REMARK  132  A    between atoms: _324  and  _326
REMARK  133  A    between atoms: _326  and  _327
REMARK  134  A    between atoms: _326  and  _329
REMARK  135  A    between atoms: _329  and  _330
REMARK  136  A    between atoms: _333  and  _335
REMARK  137  A    between atoms: _335  and  _336
REMARK  138  A    between atoms: _335  and  _338
REMARK  139  A    between atoms: _341  and  _343
REMARK  140  A    between atoms: _343  and  _344
REMARK  141  A    between atoms: _343  and  _346
REMARK  142  A    between atoms: _346  and  _347
REMARK  143  A    between atoms: _350  and  _352
REMARK  144  A    between atoms: _352  and  _353
REMARK  145  A    between atoms: _352  and  _355
REMARK  146  A    between atoms: _355  and  _356
REMARK  147  A    between atoms: _356  and  _357
REMARK  148  A    between atoms: _357  and  _358
REMARK  149  A    between atoms: _358  and  _359
REMARK  150  A    between atoms: _363  and  _365
REMARK  151  A    between atoms: _365  and  _366
REMARK  152  A    between atoms: _365  and  _368
REMARK  153  A    between atoms: _368  and  _369
REMARK  154  A    between atoms: _369  and  _370
REMARK  155  A    between atoms: _372  and  _374
REMARK  156  A    between atoms: _374  and  _375
REMARK  157  A    between atoms: _374  and  _377
REMARK  158  A    between atoms: _377  and  _378
REMARK  159  A    between atoms: _381  and  _383
REMARK  160  A    between atoms: _383  and  _384
REMARK  161  A    between atoms: _386  and  _388
REMARK  162  A    between atoms: _388  and  _389
REMARK  163  A    between atoms: _391  and  _393
REMARK  164  A    between atoms: _393  and  _394
REMARK  165  A    between atoms: _393  and  _396
REMARK  166  A    between atoms: _396  and  _397
REMARK  167  A    between atoms: _400  and  _402
REMARK  168  A    between atoms: _402  and  _403
REMARK  169  A    between atoms: _405  and  _407
REMARK  170  A    between atoms: _407  and  _408
REMARK  171  A    between atoms: _410  and  _412
REMARK  172  A    between atoms: _412  and  _413
REMARK  173  A    between atoms: _412  and  _415
REMARK  174  A    between atoms: _415  and  _416
REMARK  175  A    between atoms: _419  and  _421
REMARK  176  A    between atoms: _421  and  _422
REMARK  177  A    between atoms: _421  and  _424
REMARK  178  A    between atoms: _427  and  _429
REMARK  179  A    between atoms: _429  and  _430
REMARK  180  A    between atoms: _429  and  _432
REMARK  181  A    between atoms: _432  and  _433
REMARK  182  A    between atoms: _437  and  _438
REMARK  183  A    between atoms: _443  and  _445
REMARK  184  A    between atoms: _445  and  _446
REMARK  185  A    between atoms: _445  and  _448
REMARK  186  A    between atoms: _448  and  _449
REMARK  187  A    between atoms: _453  and  _454
REMARK  188  A    between atoms: _459  and  _461
REMARK  189  A    between atoms: _461  and  _462
REMARK  190  A    between atoms: _461  and  _464
REMARK  191  A    between atoms: _464  and  _465
REMARK  192  A    between atoms: _468  and  _470
REMARK  193  A    between atoms: _470  and  _471
REMARK  194  A    between atoms: _470  and  _473
REMARK  195  A    between atoms: _473  and  _474
REMARK  196  A    between atoms: _479  and  _481
REMARK  197  A    between atoms: _481  and  _482
REMARK  198  A    between atoms: _481  and  _484
REMARK  199  A    between atoms: _487  and  _489
REMARK  200  A    between atoms: _489  and  _490
REMARK  201  A    between atoms: _489  and  _492
REMARK  202  A    between atoms: _492  and  _493
REMARK  203  A    between atoms: _496  and  _498
REMARK  204  A    between atoms: _498  and  _499
REMARK  205  A    between atoms: _501  and  _503
REMARK  206  A    between atoms: _503  and  _504
REMARK  207  A    between atoms: _503  and  _506
REMARK  208  A    between atoms: _506  and  _507
REMARK  209  A    between atoms: _507  and  _508
REMARK  210  A    between atoms: _508  and  _509
REMARK  211  A    between atoms: _518  and  _520
REMARK  212  A    between atoms: _520  and  _521
REMARK  213  A    between atoms: _520  and  _523
REMARK  214  A    between atoms: _523  and  _524
REMARK                            x       y       z     vdW  Elec       q    Type
REMARK                         _______ _______ _______ _____ _____    ______ ____
ROOT
ATOM      1  O   HOH     1       5.173  -3.312  12.053  0.00  0.00    +0.000 OA
ENDROOT
TORSDOF 0
REMARK  Name = ../refined-set-2016/1t7j/1t7j_pocket.pdb
REMARK  214 active torsions:
REMARK  status: ('A' for Active; 'I' for Inactive)
REMARK    1  A    between atoms: _1  and  _3
REMARK    2  A    between atoms: _3  and  _4
REMARK    3  A    between atoms: _3  and  _6
REMARK    4  A    between atoms: _6  and  _7
REMARK    5  A    between atoms: _7  and  _8
REMARK    6  A    between atoms: _8  and  _9
REMARK    7  A    between atoms: _18  and  _20
REMARK    8  A    between atoms: _20  and  _21
REMARK    9  A    between atoms: _20  and  _23
REMARK   10  A    between atoms: _23  and  _24
REMARK   11  A    between atoms: _27  and  _29
REMARK   12  A    between atoms: _29  and  _30
REMARK   13  A    between atoms: _29  and  _32
REMARK   14  A    between atoms: _32  and  _33
REMARK   15  A    between atoms: _36  and  _38
REMARK   16  A    between atoms: _38  and  _39
REMARK   17  A    between atoms: _38  and  _41
REMARK   18  A    between atoms: _41  and  _42
REMARK   19  A    between atoms: _45  and  _47
REMARK   20  A    between atoms: _47  and  _48
REMARK   21  A    between atoms: _47  and  _50
REMARK   22  A    between atoms: _50  and  _51
REMARK   23  A    between atoms: _54  and  _56
REMARK   24  A    between atoms: _56  and  _57
REMARK   25  A    between atoms: _59  and  _61
REMARK   26  A    between atoms: _61  and  _62
REMARK   27  A    between atoms: _65  and  _67
REMARK   28  A    between atoms: _67  and  _68
REMARK   29  A    between atoms: _67  and  _70
REMARK   30  A    between atoms: _70  and  _71
REMARK   31  A    between atoms: _74  and  _76
REMARK   32  A    between atoms: _76  and  _77
REMARK   33  A    between atoms: _76  and  _79
REMARK   34  A    between atoms: _79  and  _80
REMARK   35  A    between atoms: _83  and  _85
REMARK   36  A    between atoms: _85  and  _86
REMARK   37  A    between atoms: _85  and  _88
REMARK   38  A    between atoms: _88  and  _89
REMARK   39  A    between atoms: _92  and  _94
REMARK   40  A    between atoms: _94  and  _95
REMARK   41  A    between atoms: _94  and  _97
REMARK   42  A    between atoms: _100  and  _102
REMARK   43  A    between atoms: _102  and  _103
REMARK   44  A    between atoms: _102  and  _105
REMARK   45  A    between atoms: _105  and  _106
REMARK   46  A    between atoms: _109  and  _111
REMARK   47  A    between atoms: _111  and  _112
REMARK   48  A    between atoms: _114  and  _116
REMARK   49  A    between atoms: _116  and  _117
REMARK   50  A    between atoms: _119  and  _121
REMARK   51  A    between atoms: _121  and  _122
REMARK   52  A    between atoms: _121  and  _124
REMARK   53  A    between atoms: _124  and  _125
REMARK   54  A    between atoms: _128  and  _130
REMARK   55  A    between atoms: _130  and  _131
REMARK   56  A    between atoms: _133  and  _135
REMARK   57  A    between atoms: _135  and  _136
REMARK   58  A    between atoms: _138  and  _140
REMARK   59  A    between atoms: _140  and  _141
REMARK   60  A    between atoms: _140  and  _143
REMARK   61  A    between atoms: _143  and  _144
REMARK   62  A    between atoms: _147  and  _149
REMARK   63  A    between atoms: _149  and  _150
REMARK   64  A    between atoms: _149  and  _152
REMARK   65  A    between atoms: _152  and  _153
REMARK   66  A    between atoms: _156  and  _158
REMARK   67  A    between atoms: _158  and  _159
REMARK   68  A    between atoms: _158  and  _161
REMARK   69  A    between atoms: _161  and  _162
REMARK   70  A    between atoms: _166  and  _167
REMARK   71  A    between atoms: _172  and  _174
REMARK   72  A    between atoms: _174  and  _175
REMARK   73  A    between atoms: _174  and  _177
REMARK   74  A    between atoms: _177  and  _178
REMARK   75  A    between atoms: _181  and  _183
REMARK   76  A    between atoms: _183  and  _184
REMARK   77  A    between atoms: _183  and  _186
REMARK   78  A    between atoms: _186  and  _187
REMARK   79  A    between atoms: _192  and  _194
REMARK   80  A    between atoms: _194  and  _195
REMARK   81  A    between atoms: _194  and  _197
REMARK   82  A    between atoms: _200  and  _202
REMARK   83  A    between atoms: _202  and  _203
REMARK   84  A    between atoms: _202  and  _205
REMARK   85  A    between atoms: _205  and  _206
REMARK   86  A    between atoms: _209  and  _211
REMARK   87  A    between atoms: _211  and  _212
REMARK   88  A    between atoms: _214  and  _216
REMARK   89  A    between atoms: _216  and  _217
REMARK   90  A    between atoms: _216  and  _219
REMARK   91  A    between atoms: _219  and  _220
REMARK   92  A    between atoms: _220  and  _221
REMARK   93  A    between atoms: _221  and  _222
REMARK   94  A    between atoms: _231  and  _233
REMARK   95  A    between atoms: _233  and  _234
REMARK   96  A    between atoms: _233  and  _236
REMARK   97  A    between atoms: _236  and  _237
REMARK   98  A    between atoms: _242  and  _244
REMARK   99  A    between atoms: _244  and  _245
REMARK  100  A    between atoms: _244  and  _247
REMARK  101  A    between atoms: _247  and  _248
REMARK  102  A    between atoms: _248  and  _249
REMARK  103  A    between atoms: _249  and  _250
REMARK  104  A    between atoms: _259  and  _261
REMARK  105  A    between atoms: _261  and  _262
REMARK  106  A    between atoms: _261  and  _264
REMARK  107  A    between atoms: _264  and  _265
REMARK  108  A    between atoms: _268  and  _270
REMARK  109  A    between atoms: _270  and  _271
REMARK  110  A    between atoms: _270  and  _273
REMARK  111  A    between atoms: _273  and  _274
REMARK  112  A    between atoms: _277  and  _279
REMARK  113  A    between atoms: _279  and  _280
REMARK  114  A    between atoms: _279  and  _282
REMARK  115  A    between atoms: _282  and  _283
REMARK  116  A    between atoms: _286  and  _288
REMARK  117  A    between atoms: _288  and  _289
REMARK  118  A    between atoms: _288  and  _291
REMARK  119  A    between atoms: _291  and  _292
REMARK  120  A    between atoms: _295  and  _297
REMARK  121  A    between atoms: _297  and  _298
REMARK  122  A    between atoms: _300  and  _302
REMARK  123  A    between atoms: _302  and  _303
REMARK  124  A    between atoms: _306  and  _308
REMARK  125  A    between atoms: _308  and  _309
REMARK  126  A    between atoms: _308  and  _311
REMARK  127  A    between atoms: _311  and  _312
REMARK  128  A    between atoms: _315  and  _317
REMARK  129  A    between atoms: _317  and  _318
REMARK  130  A    between atoms: _317  and  _320
REMARK  131  A    between atoms: _320  and  _321
REMARK  132  A    between atoms: _324  and  _326
REMARK  133  A    between atoms: _326  and  _327
REMARK  134  A    between atoms: _326  and  _329
REMARK  135  A    between atoms: _329  and  _330
REMARK  136  A    between atoms: _333  and  _335
REMARK  137  A    between atoms: _335  and  _336
REMARK  138  A    between atoms: _335  and  _338
REMARK  139  A    between atoms: _341  and  _343
REMARK  140  A    between atoms: _343  and  _344
REMARK  141  A    between atoms: _343  and  _346
REMARK  142  A    between atoms: _346  and  _347
REMARK  143  A    between atoms: _350  and  _352
REMARK  144  A    between atoms: _352  and  _353
REMARK  145  A    between atoms: _352  and  _355
REMARK  146  A    between atoms: _355  and  _356
REMARK  147  A    between atoms: _356  and  _357
REMARK  148  A    between atoms: _357  and  _358
REMARK  149  A    between atoms: _358  and  _359
REMARK  150  A    between atoms: _363  and  _365
REMARK  151  A    between atoms: _365  and  _366
REMARK  152  A    between atoms: _365  and  _368
REMARK  153  A    between atoms: _368  and  _369
REMARK  154  A    between atoms: _369  and  _370
REMARK  155  A    between atoms: _372  and  _374
REMARK  156  A    between atoms: _374  and  _375
REMARK  157  A    between atoms: _374  and  _377
REMARK  158  A    between atoms: _377  and  _378
REMARK  159  A    between atoms: _381  and  _383
REMARK  160  A    between atoms: _383  and  _384
REMARK  161  A    between atoms: _386  and  _388
REMARK  162  A    between atoms: _388  and  _389
REMARK  163  A    between atoms: _391  and  _393
REMARK  164  A    between atoms: _393  and  _394
REMARK  165  A    between atoms: _393  and  _396
REMARK  166  A    between atoms: _396  and  _397
REMARK  167  A    between atoms: _400  and  _402
REMARK  168  A    between atoms: _402  and  _403
REMARK  169  A    between atoms: _405  and  _407
REMARK  170  A    between atoms: _407  and  _408
REMARK  171  A    between atoms: _410  and  _412
REMARK  172  A    between atoms: _412  and  _413
REMARK  173  A    between atoms: _412  and  _415
REMARK  174  A    between atoms: _415  and  _416
REMARK  175  A    between atoms: _419  and  _421
REMARK  176  A    between atoms: _421  and  _422
REMARK  177  A    between atoms: _421  and  _424
REMARK  178  A    between atoms: _427  and  _429
REMARK  179  A    between atoms: _429  and  _430
REMARK  180  A    between atoms: _429  and  _432
REMARK  181  A    between atoms: _432  and  _433
REMARK  182  A    between atoms: _437  and  _438
REMARK  183  A    between atoms: _443  and  _445
REMARK  184  A    between atoms: _445  and  _446
REMARK  185  A    between atoms: _445  and  _448
REMARK  186  A    between atoms: _448  and  _449
REMARK  187  A    between atoms: _453  and  _454
REMARK  188  A    between atoms: _459  and  _461
REMARK  189  A    between atoms: _461  and  _462
REMARK  190  A    between atoms: _461  and  _464
REMARK  191  A    between atoms: _464  and  _465
REMARK  192  A    between atoms: _468  and  _470
REMARK  193  A    between atoms: _470  and  _471
REMARK  194  A    between atoms: _470  and  _473
REMARK  195  A    between atoms: _473  and  _474
REMARK  196  A    between atoms: _479  and  _481
REMARK  197  A    between atoms: _481  and  _482
REMARK  198  A    between atoms: _481  and  _484
REMARK  199  A    between atoms: _487  and  _489
REMARK  200  A    between atoms: _489  and  _490
REMARK  201  A    between atoms: _489  and  _492
REMARK  202  A    between atoms: _492  and  _493
REMARK  203  A    between atoms: _496  and  _498
REMARK  204  A    between atoms: _498  and  _499
REMARK  205  A    between atoms: _501  and  _503
REMARK  206  A    between atoms: _503  and  _504
REMARK  207  A    between atoms: _503  and  _506
REMARK  208  A    between atoms: _506  and  _507
REMARK  209  A    between atoms: _507  and  _508
REMARK  210  A    between atoms: _508  and  _509
REMARK  211  A    between atoms: _518  and  _520
REMARK  212  A    between atoms: _520  and  _521
REMARK  213  A    between atoms: _520  and  _523
REMARK  214  A    between atoms: _523  and  _524
REMARK                            x       y       z     vdW  Elec       q    Type
REMARK                         _______ _______ _______ _____ _____    ______ ____
ROOT
ATOM      1  O   HOH     1      -5.859   5.279  11.934  0.00  0.00    +0.000 OA
ENDROOT
TORSDOF 0
REMARK  Name = ../refined-set-2016/1t7j/1t7j_pocket.pdb
REMARK  214 active torsions:
REMARK  status: ('A' for Active; 'I' for Inactive)
REMARK    1  A    between atoms: _1  and  _3
REMARK    2  A    between atoms: _3  and  _4
REMARK    3  A    between atoms: _3  and  _6
REMARK    4  A    between atoms: _6  and  _7
REMARK    5  A    between atoms: _7  and  _8
REMARK    6  A    between atoms: _8  and  _9
REMARK    7  A    between atoms: _18  and  _20
REMARK    8  A    between atoms: _20  and  _21
REMARK    9  A    between atoms: _20  and  _23
REMARK   10  A    between atoms: _23  and  _24
REMARK   11  A    between atoms: _27  and  _29
REMARK   12  A    between atoms: _29  and  _30
REMARK   13  A    between atoms: _29  and  _32
REMARK   14  A    between atoms: _32  and  _33
REMARK   15  A    between atoms: _36  and  _38
REMARK   16  A    between atoms: _38  and  _39
REMARK   17  A    between atoms: _38  and  _41
REMARK   18  A    between atoms: _41  and  _42
REMARK   19  A    between atoms: _45  and  _47
REMARK   20  A    between atoms: _47  and  _48
REMARK   21  A    between atoms: _47  and  _50
REMARK   22  A    between atoms: _50  and  _51
REMARK   23  A    between atoms: _54  and  _56
REMARK   24  A    between atoms: _56  and  _57
REMARK   25  A    between atoms: _59  and  _61
REMARK   26  A    between atoms: _61  and  _62
REMARK   27  A    between atoms: _65  and  _67
REMARK   28  A    between atoms: _67  and  _68
REMARK   29  A    between atoms: _67  and  _70
REMARK   30  A    between atoms: _70  and  _71
REMARK   31  A    between atoms: _74  and  _76
REMARK   32  A    between atoms: _76  and  _77
REMARK   33  A    between atoms: _76  and  _79
REMARK   34  A    between atoms: _79  and  _80
REMARK   35  A    between atoms: _83  and  _85
REMARK   36  A    between atoms: _85  and  _86
REMARK   37  A    between atoms: _85  and  _88
REMARK   38  A    between atoms: _88  and  _89
REMARK   39  A    between atoms: _92  and  _94
REMARK   40  A    between atoms: _94  and  _95
REMARK   41  A    between atoms: _94  and  _97
REMARK   42  A    between atoms: _100  and  _102
REMARK   43  A    between atoms: _102  and  _103
REMARK   44  A    between atoms: _102  and  _105
REMARK   45  A    between atoms: _105  and  _106
REMARK   46  A    between atoms: _109  and  _111
REMARK   47  A    between atoms: _111  and  _112
REMARK   48  A    between atoms: _114  and  _116
REMARK   49  A    between atoms: _116  and  _117
REMARK   50  A    between atoms: _119  and  _121
REMARK   51  A    between atoms: _121  and  _122
REMARK   52  A    between atoms: _121  and  _124
REMARK   53  A    between atoms: _124  and  _125
REMARK   54  A    between atoms: _128  and  _130
REMARK   55  A    between atoms: _130  and  _131
REMARK   56  A    between atoms: _133  and  _135
REMARK   57  A    between atoms: _135  and  _136
REMARK   58  A    between atoms: _138  and  _140
REMARK   59  A    between atoms: _140  and  _141
REMARK   60  A    between atoms: _140  and  _143
REMARK   61  A    between atoms: _143  and  _144
REMARK   62  A    between atoms: _147  and  _149
REMARK   63  A    between atoms: _149  and  _150
REMARK   64  A    between atoms: _149  and  _152
REMARK   65  A    between atoms: _152  and  _153
REMARK   66  A    between atoms: _156  and  _158
REMARK   67  A    between atoms: _158  and  _159
REMARK   68  A    between atoms: _158  and  _161
REMARK   69  A    between atoms: _161  and  _162
REMARK   70  A    between atoms: _166  and  _167
REMARK   71  A    between atoms: _172  and  _174
REMARK   72  A    between atoms: _174  and  _175
REMARK   73  A    between atoms: _174  and  _177
REMARK   74  A    between atoms: _177  and  _178
REMARK   75  A    between atoms: _181  and  _183
REMARK   76  A    between atoms: _183  and  _184
REMARK   77  A    between atoms: _183  and  _186
REMARK   78  A    between atoms: _186  and  _187
REMARK   79  A    between atoms: _192  and  _194
REMARK   80  A    between atoms: _194  and  _195
REMARK   81  A    between atoms: _194  and  _197
REMARK   82  A    between atoms: _200  and  _202
REMARK   83  A    between atoms: _202  and  _203
REMARK   84  A    between atoms: _202  and  _205
REMARK   85  A    between atoms: _205  and  _206
REMARK   86  A    between atoms: _209  and  _211
REMARK   87  A    between atoms: _211  and  _212
REMARK   88  A    between atoms: _214  and  _216
REMARK   89  A    between atoms: _216  and  _217
REMARK   90  A    between atoms: _216  and  _219
REMARK   91  A    between atoms: _219  and  _220
REMARK   92  A    between atoms: _220  and  _221
REMARK   93  A    between atoms: _221  and  _222
REMARK   94  A    between atoms: _231  and  _233
REMARK   95  A    between atoms: _233  and  _234
REMARK   96  A    between atoms: _233  and  _236
REMARK   97  A    between atoms: _236  and  _237
REMARK   98  A    between atoms: _242  and  _244
REMARK   99  A    between atoms: _244  and  _245
REMARK  100  A    between atoms: _244  and  _247
REMARK  101  A    between atoms: _247  and  _248
REMARK  102  A    between atoms: _248  and  _249
REMARK  103  A    between atoms: _249  and  _250
REMARK  104  A    between atoms: _259  and  _261
REMARK  105  A    between atoms: _261  and  _262
REMARK  106  A    between atoms: _261  and  _264
REMARK  107  A    between atoms: _264  and  _265
REMARK  108  A    between atoms: _268  and  _270
REMARK  109  A    between atoms: _270  and  _271
REMARK  110  A    between atoms: _270  and  _273
REMARK  111  A    between atoms: _273  and  _274
REMARK  112  A    between atoms: _277  and  _279
REMARK  113  A    between atoms: _279  and  _280
REMARK  114  A    between atoms: _279  and  _282
REMARK  115  A    between atoms: _282  and  _283
REMARK  116  A    between atoms: _286  and  _288
REMARK  117  A    between atoms: _288  and  _289
REMARK  118  A    between atoms: _288  and  _291
REMARK  119  A    between atoms: _291  and  _292
REMARK  120  A    between atoms: _295  and  _297
REMARK  121  A    between atoms: _297  and  _298
REMARK  122  A    between atoms: _300  and  _302
REMARK  123  A    between atoms: _302  and  _303
REMARK  124  A    between atoms: _306  and  _308
REMARK  125  A    between atoms: _308  and  _309
REMARK  126  A    between atoms: _308  and  _311
REMARK  127  A    between atoms: _311  and  _312
REMARK  128  A    between atoms: _315  and  _317
REMARK  129  A    between atoms: _317  and  _318
REMARK  130  A    between atoms: _317  and  _320
REMARK  131  A    between atoms: _320  and  _321
REMARK  132  A    between atoms: _324  and  _326
REMARK  133  A    between atoms: _326  and  _327
REMARK  134  A    between atoms: _326  and  _329
REMARK  135  A    between atoms: _329  and  _330
REMARK  136  A    between atoms: _333  and  _335
REMARK  137  A    between atoms: _335  and  _336
REMARK  138  A    between atoms: _335  and  _338
REMARK  139  A    between atoms: _341  and  _343
REMARK  140  A    between atoms: _343  and  _344
REMARK  141  A    between atoms: _343  and  _346
REMARK  142  A    between atoms: _346  and  _347
REMARK  143  A    between atoms: _350  and  _352
REMARK  144  A    between atoms: _352  and  _353
REMARK  145  A    between atoms: _352  and  _355
REMARK  146  A    between atoms: _355  and  _356
REMARK  147  A    between atoms: _356  and  _357
REMARK  148  A    between atoms: _357  and  _358
REMARK  149  A    between atoms: _358  and  _359
REMARK  150  A    between atoms: _363  and  _365
REMARK  151  A    between atoms: _365  and  _366
REMARK  152  A    between atoms: _365  and  _368
REMARK  153  A    between atoms: _368  and  _369
REMARK  154  A    between atoms: _369  and  _370
REMARK  155  A    between atoms: _372  and  _374
REMARK  156  A    between atoms: _374  and  _375
REMARK  157  A    between atoms: _374  and  _377
REMARK  158  A    between atoms: _377  and  _378
REMARK  159  A    between atoms: _381  and  _383
REMARK  160  A    between atoms: _383  and  _384
REMARK  161  A    between atoms: _386  and  _388
REMARK  162  A    between atoms: _388  and  _389
REMARK  163  A    between atoms: _391  and  _393
REMARK  164  A    between atoms: _393  and  _394
REMARK  165  A    between atoms: _393  and  _396
REMARK  166  A    between atoms: _396  and  _397
REMARK  167  A    between atoms: _400  and  _402
REMARK  168  A    between atoms: _402  and  _403
REMARK  169  A    between atoms: _405  and  _407
REMARK  170  A    between atoms: _407  and  _408
REMARK  171  A    between atoms: _410  and  _412
REMARK  172  A    between atoms: _412  and  _413
REMARK  173  A    between atoms: _412  and  _415
REMARK  174  A    between atoms: _415  and  _416
REMARK  175  A    between atoms: _419  and  _421
REMARK  176  A    between atoms: _421  and  _422
REMARK  177  A    between atoms: _421  and  _424
REMARK  178  A    between atoms: _427  and  _429
REMARK  179  A    between atoms: _429  and  _430
REMARK  180  A    between atoms: _429  and  _432
REMARK  181  A    between atoms: _432  and  _433
REMARK  182  A    between atoms: _437  and  _438
REMARK  183  A    between atoms: _443  and  _445
REMARK  184  A    between atoms: _445  and  _446
REMARK  185  A    between atoms: _445  and  _448
REMARK  186  A    between atoms: _448  and  _449
REMARK  187  A    between atoms: _453  and  _454
REMARK  188  A    between atoms: _459  and  _461
REMARK  189  A    between atoms: _461  and  _462
REMARK  190  A    between atoms: _461  and  _464
REMARK  191  A    between atoms: _464  and  _465
REMARK  192  A    between atoms: _468  and  _470
REMARK  193  A    between atoms: _470  and  _471
REMARK  194  A    between atoms: _470  and  _473
REMARK  195  A    between atoms: _473  and  _474
REMARK  196  A    between atoms: _479  and  _481
REMARK  197  A    between atoms: _481  and  _482
REMARK  198  A    between atoms: _481  and  _484
REMARK  199  A    between atoms: _487  and  _489
REMARK  200  A    between atoms: _489  and  _490
REMARK  201  A    between atoms: _489  and  _492
REMARK  202  A    between atoms: _492  and  _493
REMARK  203  A    between atoms: _496  and  _498
REMARK  204  A    between atoms: _498  and  _499
REMARK  205  A    between atoms: _501  and  _503
REMARK  206  A    between atoms: _503  and  _504
REMARK  207  A    between atoms: _503  and  _506
REMARK  208  A    between atoms: _506  and  _507
REMARK  209  A    between atoms: _507  and  _508
REMARK  210  A    between atoms: _508  and  _509
REMARK  211  A    between atoms: _518  and  _520
REMARK  212  A    between atoms: _520  and  _521
REMARK  213  A    between atoms: _520  and  _523
REMARK  214  A    between atoms: _523  and  _524
REMARK                            x       y       z     vdW  Elec       q    Type
REMARK                         _______ _______ _______ _____ _____    ______ ____
ROOT
ATOM      1  O   HOH     1       4.707   7.350  15.015  0.00  0.00    +0.000 OA
ENDROOT
TORSDOF 0
REMARK  Name = ../refined-set-2016/1t7j/1t7j_pocket.pdb
REMARK  214 active torsions:
REMARK  status: ('A' for Active; 'I' for Inactive)
REMARK    1  A    between atoms: _1  and  _3
REMARK    2  A    between atoms: _3  and  _4
REMARK    3  A    between atoms: _3  and  _6
REMARK    4  A    between atoms: _6  and  _7
REMARK    5  A    between atoms: _7  and  _8
REMARK    6  A    between atoms: _8  and  _9
REMARK    7  A    between atoms: _18  and  _20
REMARK    8  A    between atoms: _20  and  _21
REMARK    9  A    between atoms: _20  and  _23
REMARK   10  A    between atoms: _23  and  _24
REMARK   11  A    between atoms: _27  and  _29
REMARK   12  A    between atoms: _29  and  _30
REMARK   13  A    between atoms: _29  and  _32
REMARK   14  A    between atoms: _32  and  _33
REMARK   15  A    between atoms: _36  and  _38
REMARK   16  A    between atoms: _38  and  _39
REMARK   17  A    between atoms: _38  and  _41
REMARK   18  A    between atoms: _41  and  _42
REMARK   19  A    between atoms: _45  and  _47
REMARK   20  A    between atoms: _47  and  _48
REMARK   21  A    between atoms: _47  and  _50
REMARK   22  A    between atoms: _50  and  _51
REMARK   23  A    between atoms: _54  and  _56
REMARK   24  A    between atoms: _56  and  _57
REMARK   25  A    between atoms: _59  and  _61
REMARK   26  A    between atoms: _61  and  _62
REMARK   27  A    between atoms: _65  and  _67
REMARK   28  A    between atoms: _67  and  _68
REMARK   29  A    between atoms: _67  and  _70
REMARK   30  A    between atoms: _70  and  _71
REMARK   31  A    between atoms: _74  and  _76
REMARK   32  A    between atoms: _76  and  _77
REMARK   33  A    between atoms: _76  and  _79
REMARK   34  A    between atoms: _79  and  _80
REMARK   35  A    between atoms: _83  and  _85
REMARK   36  A    between atoms: _85  and  _86
REMARK   37  A    between atoms: _85  and  _88
REMARK   38  A    between atoms: _88  and  _89
REMARK   39  A    between atoms: _92  and  _94
REMARK   40  A    between atoms: _94  and  _95
REMARK   41  A    between atoms: _94  and  _97
REMARK   42  A    between atoms: _100  and  _102
REMARK   43  A    between atoms: _102  and  _103
REMARK   44  A    between atoms: _102  and  _105
REMARK   45  A    between atoms: _105  and  _106
REMARK   46  A    between atoms: _109  and  _111
REMARK   47  A    between atoms: _111  and  _112
REMARK   48  A    between atoms: _114  and  _116
REMARK   49  A    between atoms: _116  and  _117
REMARK   50  A    between atoms: _119  and  _121
REMARK   51  A    between atoms: _121  and  _122
REMARK   52  A    between atoms: _121  and  _124
REMARK   53  A    between atoms: _124  and  _125
REMARK   54  A    between atoms: _128  and  _130
REMARK   55  A    between atoms: _130  and  _131
REMARK   56  A    between atoms: _133  and  _135
REMARK   57  A    between atoms: _135  and  _136
REMARK   58  A    between atoms: _138  and  _140
REMARK   59  A    between atoms: _140  and  _141
REMARK   60  A    between atoms: _140  and  _143
REMARK   61  A    between atoms: _143  and  _144
REMARK   62  A    between atoms: _147  and  _149
REMARK   63  A    between atoms: _149  and  _150
REMARK   64  A    between atoms: _149  and  _152
REMARK   65  A    between atoms: _152  and  _153
REMARK   66  A    between atoms: _156  and  _158
REMARK   67  A    between atoms: _158  and  _159
REMARK   68  A    between atoms: _158  and  _161
REMARK   69  A    between atoms: _161  and  _162
REMARK   70  A    between atoms: _166  and  _167
REMARK   71  A    between atoms: _172  and  _174
REMARK   72  A    between atoms: _174  and  _175
REMARK   73  A    between atoms: _174  and  _177
REMARK   74  A    between atoms: _177  and  _178
REMARK   75  A    between atoms: _181  and  _183
REMARK   76  A    between atoms: _183  and  _184
REMARK   77  A    between atoms: _183  and  _186
REMARK   78  A    between atoms: _186  and  _187
REMARK   79  A    between atoms: _192  and  _194
REMARK   80  A    between atoms: _194  and  _195
REMARK   81  A    between atoms: _194  and  _197
REMARK   82  A    between atoms: _200  and  _202
REMARK   83  A    between atoms: _202  and  _203
REMARK   84  A    between atoms: _202  and  _205
REMARK   85  A    between atoms: _205  and  _206
REMARK   86  A    between atoms: _209  and  _211
REMARK   87  A    between atoms: _211  and  _212
REMARK   88  A    between atoms: _214  and  _216
REMARK   89  A    between atoms: _216  and  _217
REMARK   90  A    between atoms: _216  and  _219
REMARK   91  A    between atoms: _219  and  _220
REMARK   92  A    between atoms: _220  and  _221
REMARK   93  A    between atoms: _221  and  _222
REMARK   94  A    between atoms: _231  and  _233
REMARK   95  A    between atoms: _233  and  _234
REMARK   96  A    between atoms: _233  and  _236
REMARK   97  A    between atoms: _236  and  _237
REMARK   98  A    between atoms: _242  and  _244
REMARK   99  A    between atoms: _244  and  _245
REMARK  100  A    between atoms: _244  and  _247
REMARK  101  A    between atoms: _247  and  _248
REMARK  102  A    between atoms: _248  and  _249
REMARK  103  A    between atoms: _249  and  _250
REMARK  104  A    between atoms: _259  and  _261
REMARK  105  A    between atoms: _261  and  _262
REMARK  106  A    between atoms: _261  and  _264
REMARK  107  A    between atoms: _264  and  _265
REMARK  108  A    between atoms: _268  and  _270
REMARK  109  A    between atoms: _270  and  _271
REMARK  110  A    between atoms: _270  and  _273
REMARK  111  A    between atoms: _273  and  _274
REMARK  112  A    between atoms: _277  and  _279
REMARK  113  A    between atoms: _279  and  _280
REMARK  114  A    between atoms: _279  and  _282
REMARK  115  A    between atoms: _282  and  _283
REMARK  116  A    between atoms: _286  and  _288
REMARK  117  A    between atoms: _288  and  _289
REMARK  118  A    between atoms: _288  and  _291
REMARK  119  A    between atoms: _291  and  _292
REMARK  120  A    between atoms: _295  and  _297
REMARK  121  A    between atoms: _297  and  _298
REMARK  122  A    between atoms: _300  and  _302
REMARK  123  A    between atoms: _302  and  _303
REMARK  124  A    between atoms: _306  and  _308
REMARK  125  A    between atoms: _308  and  _309
REMARK  126  A    between atoms: _308  and  _311
REMARK  127  A    between atoms: _311  and  _312
REMARK  128  A    between atoms: _315  and  _317
REMARK  129  A    between atoms: _317  and  _318
REMARK  130  A    between atoms: _317  and  _320
REMARK  131  A    between atoms: _320  and  _321
REMARK  132  A    between atoms: _324  and  _326
REMARK  133  A    between atoms: _326  and  _327
REMARK  134  A    between atoms: _326  and  _329
REMARK  135  A    between atoms: _329  and  _330
REMARK  136  A    between atoms: _333  and  _335
REMARK  137  A    between atoms: _335  and  _336
REMARK  138  A    between atoms: _335  and  _338
REMARK  139  A    between atoms: _341  and  _343
REMARK  140  A    between atoms: _343  and  _344
REMARK  141  A    between atoms: _343  and  _346
REMARK  142  A    between atoms: _346  and  _347
REMARK  143  A    between atoms: _350  and  _352
REMARK  144  A    between atoms: _352  and  _353
REMARK  145  A    between atoms: _352  and  _355
REMARK  146  A    between atoms: _355  and  _356
REMARK  147  A    between atoms: _356  and  _357
REMARK  148  A    between atoms: _357  and  _358
REMARK  149  A    between atoms: _358  and  _359
REMARK  150  A    between atoms: _363  and  _365
REMARK  151  A    between atoms: _365  and  _366
REMARK  152  A    between atoms: _365  and  _368
REMARK  153  A    between atoms: _368  and  _369
REMARK  154  A    between atoms: _369  and  _370
REMARK  155  A    between atoms: _372  and  _374
REMARK  156  A    between atoms: _374  and  _375
REMARK  157  A    between atoms: _374  and  _377
REMARK  158  A    between atoms: _377  and  _378
REMARK  159  A    between atoms: _381  and  _383
REMARK  160  A    between atoms: _383  and  _384
REMARK  161  A    between atoms: _386  and  _388
REMARK  162  A    between atoms: _388  and  _389
REMARK  163  A    between atoms: _391  and  _393
REMARK  164  A    between atoms: _393  and  _394
REMARK  165  A    between atoms: _393  and  _396
REMARK  166  A    between atoms: _396  and  _397
REMARK  167  A    between atoms: _400  and  _402
REMARK  168  A    between atoms: _402  and  _403
REMARK  169  A    between atoms: _405  and  _407
REMARK  170  A    between atoms: _407  and  _408
REMARK  171  A    between atoms: _410  and  _412
REMARK  172  A    between atoms: _412  and  _413
REMARK  173  A    between atoms: _412  and  _415
REMARK  174  A    between atoms: _415  and  _416
REMARK  175  A    between atoms: _419  and  _421
REMARK  176  A    between atoms: _421  and  _422
REMARK  177  A    between atoms: _421  and  _424
REMARK  178  A    between atoms: _427  and  _429
REMARK  179  A    between atoms: _429  and  _430
REMARK  180  A    between atoms: _429  and  _432
REMARK  181  A    between atoms: _432  and  _433
REMARK  182  A    between atoms: _437  and  _438
REMARK  183  A    between atoms: _443  and  _445
REMARK  184  A    between atoms: _445  and  _446
REMARK  185  A    between atoms: _445  and  _448
REMARK  186  A    between atoms: _448  and  _449
REMARK  187  A    between atoms: _453  and  _454
REMARK  188  A    between atoms: _459  and  _461
REMARK  189  A    between atoms: _461  and  _462
REMARK  190  A    between atoms: _461  and  _464
REMARK  191  A    between atoms: _464  and  _465
REMARK  192  A    between atoms: _468  and  _470
REMARK  193  A    between atoms: _470  and  _471
REMARK  194  A    between atoms: _470  and  _473
REMARK  195  A    between atoms: _473  and  _474
REMARK  196  A    between atoms: _479  and  _481
REMARK  197  A    between atoms: _481  and  _482
REMARK  198  A    between atoms: _481  and  _484
REMARK  199  A    between atoms: _487  and  _489
REMARK  200  A    between atoms: _489  and  _490
REMARK  201  A    between atoms: _489  and  _492
REMARK  202  A    between atoms: _492  and  _493
REMARK  203  A    between atoms: _496  and  _498
REMARK  204  A    between atoms: _498  and  _499
REMARK  205  A    between atoms: _501  and  _503
REMARK  206  A    between atoms: _503  and  _504
REMARK  207  A    between atoms: _503  and  _506
REMARK  208  A    between atoms: _506  and  _507
REMARK  209  A    between atoms: _507  and  _508
REMARK  210  A    between atoms: _508  and  _509
REMARK  211  A    between atoms: _518  and  _520
REMARK  212  A    between atoms: _520  and  _521
REMARK  213  A    between atoms: _520  and  _523
REMARK  214  A    between atoms: _523  and  _524
REMARK                            x       y       z     vdW  Elec       q    Type
REMARK                         _______ _______ _______ _____ _____    ______ ____
ROOT
ATOM      1  O   HOH     1       5.793   5.793  13.020  0.00  0.00    +0.000 OA
ENDROOT
TORSDOF 0
REMARK  Name = ../refined-set-2016/1t7j/1t7j_pocket.pdb
REMARK  214 active torsions:
REMARK  status: ('A' for Active; 'I' for Inactive)
REMARK    1  A    between atoms: _1  and  _3
REMARK    2  A    between atoms: _3  and  _4
REMARK    3  A    between atoms: _3  and  _6
REMARK    4  A    between atoms: _6  and  _7
REMARK    5  A    between atoms: _7  and  _8
REMARK    6  A    between atoms: _8  and  _9
REMARK    7  A    between atoms: _18  and  _20
REMARK    8  A    between atoms: _20  and  _21
REMARK    9  A    between atoms: _20  and  _23
REMARK   10  A    between atoms: _23  and  _24
REMARK   11  A    between atoms: _27  and  _29
REMARK   12  A    between atoms: _29  and  _30
REMARK   13  A    between atoms: _29  and  _32
REMARK   14  A    between atoms: _32  and  _33
REMARK   15  A    between atoms: _36  and  _38
REMARK   16  A    between atoms: _38  and  _39
REMARK   17  A    between atoms: _38  and  _41
REMARK   18  A    between atoms: _41  and  _42
REMARK   19  A    between atoms: _45  and  _47
REMARK   20  A    between atoms: _47  and  _48
REMARK   21  A    between atoms: _47  and  _50
REMARK   22  A    between atoms: _50  and  _51
REMARK   23  A    between atoms: _54  and  _56
REMARK   24  A    between atoms: _56  and  _57
REMARK   25  A    between atoms: _59  and  _61
REMARK   26  A    between atoms: _61  and  _62
REMARK   27  A    between atoms: _65  and  _67
REMARK   28  A    between atoms: _67  and  _68
REMARK   29  A    between atoms: _67  and  _70
REMARK   30  A    between atoms: _70  and  _71
REMARK   31  A    between atoms: _74  and  _76
REMARK   32  A    between atoms: _76  and  _77
REMARK   33  A    between atoms: _76  and  _79
REMARK   34  A    between atoms: _79  and  _80
REMARK   35  A    between atoms: _83  and  _85
REMARK   36  A    between atoms: _85  and  _86
REMARK   37  A    between atoms: _85  and  _88
REMARK   38  A    between atoms: _88  and  _89
REMARK   39  A    between atoms: _92  and  _94
REMARK   40  A    between atoms: _94  and  _95
REMARK   41  A    between atoms: _94  and  _97
REMARK   42  A    between atoms: _100  and  _102
REMARK   43  A    between atoms: _102  and  _103
REMARK   44  A    between atoms: _102  and  _105
REMARK   45  A    between atoms: _105  and  _106
REMARK   46  A    between atoms: _109  and  _111
REMARK   47  A    between atoms: _111  and  _112
REMARK   48  A    between atoms: _114  and  _116
REMARK   49  A    between atoms: _116  and  _117
REMARK   50  A    between atoms: _119  and  _121
REMARK   51  A    between atoms: _121  and  _122
REMARK   52  A    between atoms: _121  and  _124
REMARK   53  A    between atoms: _124  and  _125
REMARK   54  A    between atoms: _128  and  _130
REMARK   55  A    between atoms: _130  and  _131
REMARK   56  A    between atoms: _133  and  _135
REMARK   57  A    between atoms: _135  and  _136
REMARK   58  A    between atoms: _138  and  _140
REMARK   59  A    between atoms: _140  and  _141
REMARK   60  A    between atoms: _140  and  _143
REMARK   61  A    between atoms: _143  and  _144
REMARK   62  A    between atoms: _147  and  _149
REMARK   63  A    between atoms: _149  and  _150
REMARK   64  A    between atoms: _149  and  _152
REMARK   65  A    between atoms: _152  and  _153
REMARK   66  A    between atoms: _156  and  _158
REMARK   67  A    between atoms: _158  and  _159
REMARK   68  A    between atoms: _158  and  _161
REMARK   69  A    between atoms: _161  and  _162
REMARK   70  A    between atoms: _166  and  _167
REMARK   71  A    between atoms: _172  and  _174
REMARK   72  A    between atoms: _174  and  _175
REMARK   73  A    between atoms: _174  and  _177
REMARK   74  A    between atoms: _177  and  _178
REMARK   75  A    between atoms: _181  and  _183
REMARK   76  A    between atoms: _183  and  _184
REMARK   77  A    between atoms: _183  and  _186
REMARK   78  A    between atoms: _186  and  _187
REMARK   79  A    between atoms: _192  and  _194
REMARK   80  A    between atoms: _194  and  _195
REMARK   81  A    between atoms: _194  and  _197
REMARK   82  A    between atoms: _200  and  _202
REMARK   83  A    between atoms: _202  and  _203
REMARK   84  A    between atoms: _202  and  _205
REMARK   85  A    between atoms: _205  and  _206
REMARK   86  A    between atoms: _209  and  _211
REMARK   87  A    between atoms: _211  and  _212
REMARK   88  A    between atoms: _214  and  _216
REMARK   89  A    between atoms: _216  and  _217
REMARK   90  A    between atoms: _216  and  _219
REMARK   91  A    between atoms: _219  and  _220
REMARK   92  A    between atoms: _220  and  _221
REMARK   93  A    between atoms: _221  and  _222
REMARK   94  A    between atoms: _231  and  _233
REMARK   95  A    between atoms: _233  and  _234
REMARK   96  A    between atoms: _233  and  _236
REMARK   97  A    between atoms: _236  and  _237
REMARK   98  A    between atoms: _242  and  _244
REMARK   99  A    between atoms: _244  and  _245
REMARK  100  A    between atoms: _244  and  _247
REMARK  101  A    between atoms: _247  and  _248
REMARK  102  A    between atoms: _248  and  _249
REMARK  103  A    between atoms: _249  and  _250
REMARK  104  A    between atoms: _259  and  _261
REMARK  105  A    between atoms: _261  and  _262
REMARK  106  A    between atoms: _261  and  _264
REMARK  107  A    between atoms: _264  and  _265
REMARK  108  A    between atoms: _268  and  _270
REMARK  109  A    between atoms: _270  and  _271
REMARK  110  A    between atoms: _270  and  _273
REMARK  111  A    between atoms: _273  and  _274
REMARK  112  A    between atoms: _277  and  _279
REMARK  113  A    between atoms: _279  and  _280
REMARK  114  A    between atoms: _279  and  _282
REMARK  115  A    between atoms: _282  and  _283
REMARK  116  A    between atoms: _286  and  _288
REMARK  117  A    between atoms: _288  and  _289
REMARK  118  A    between atoms: _288  and  _291
REMARK  119  A    between atoms: _291  and  _292
REMARK  120  A    between atoms: _295  and  _297
REMARK  121  A    between atoms: _297  and  _298
REMARK  122  A    between atoms: _300  and  _302
REMARK  123  A    between atoms: _302  and  _303
REMARK  124  A    between atoms: _306  and  _308
REMARK  125  A    between atoms: _308  and  _309
REMARK  126  A    between atoms: _308  and  _311
REMARK  127  A    between atoms: _311  and  _312
REMARK  128  A    between atoms: _315  and  _317
REMARK  129  A    between atoms: _317  and  _318
REMARK  130  A    between atoms: _317  and  _320
REMARK  131  A    between atoms: _320  and  _321
REMARK  132  A    between atoms: _324  and  _326
REMARK  133  A    between atoms: _326  and  _327
REMARK  134  A    between atoms: _326  and  _329
REMARK  135  A    between atoms: _329  and  _330
REMARK  136  A    between atoms: _333  and  _335
REMARK  137  A    between atoms: _335  and  _336
REMARK  138  A    between atoms: _335  and  _338
REMARK  139  A    between atoms: _341  and  _343
REMARK  140  A    between atoms: _343  and  _344
REMARK  141  A    between atoms: _343  and  _346
REMARK  142  A    between atoms: _346  and  _347
REMARK  143  A    between atoms: _350  and  _352
REMARK  144  A    between atoms: _352  and  _353
REMARK  145  A    between atoms: _352  and  _355
REMARK  146  A    between atoms: _355  and  _356
REMARK  147  A    between atoms: _356  and  _357
REMARK  148  A    between atoms: _357  and  _358
REMARK  149  A    between atoms: _358  and  _359
REMARK  150  A    between atoms: _363  and  _365
REMARK  151  A    between atoms: _365  and  _366
REMARK  152  A    between atoms: _365  and  _368
REMARK  153  A    between atoms: _368  and  _369
REMARK  154  A    between atoms: _369  and  _370
REMARK  155  A    between atoms: _372  and  _374
REMARK  156  A    between atoms: _374  and  _375
REMARK  157  A    between atoms: _374  and  _377
REMARK  158  A    between atoms: _377  and  _378
REMARK  159  A    between atoms: _381  and  _383
REMARK  160  A    between atoms: _383  and  _384
REMARK  161  A    between atoms: _386  and  _388
REMARK  162  A    between atoms: _388  and  _389
REMARK  163  A    between atoms: _391  and  _393
REMARK  164  A    between atoms: _393  and  _394
REMARK  165  A    between atoms: _393  and  _396
REMARK  166  A    between atoms: _396  and  _397
REMARK  167  A    between atoms: _400  and  _402
REMARK  168  A    between atoms: _402  and  _403
REMARK  169  A    between atoms: _405  and  _407
REMARK  170  A    between atoms: _407  and  _408
REMARK  171  A    between atoms: _410  and  _412
REMARK  172  A    between atoms: _412  and  _413
REMARK  173  A    between atoms: _412  and  _415
REMARK  174  A    between atoms: _415  and  _416
REMARK  175  A    between atoms: _419  and  _421
REMARK  176  A    between atoms: _421  and  _422
REMARK  177  A    between atoms: _421  and  _424
REMARK  178  A    between atoms: _427  and  _429
REMARK  179  A    between atoms: _429  and  _430
REMARK  180  A    between atoms: _429  and  _432
REMARK  181  A    between atoms: _432  and  _433
REMARK  182  A    between atoms: _437  and  _438
REMARK  183  A    between atoms: _443  and  _445
REMARK  184  A    between atoms: _445  and  _446
REMARK  185  A    between atoms: _445  and  _448
REMARK  186  A    between atoms: _448  and  _449
REMARK  187  A    between atoms: _453  and  _454
REMARK  188  A    between atoms: _459  and  _461
REMARK  189  A    between atoms: _461  and  _462
REMARK  190  A    between atoms: _461  and  _464
REMARK  191  A    between atoms: _464  and  _465
REMARK  192  A    between atoms: _468  and  _470
REMARK  193  A    between atoms: _470  and  _471
REMARK  194  A    between atoms: _470  and  _473
REMARK  195  A    between atoms: _473  and  _474
REMARK  196  A    between atoms: _479  and  _481
REMARK  197  A    between atoms: _481  and  _482
REMARK  198  A    between atoms: _481  and  _484
REMARK  199  A    between atoms: _487  and  _489
REMARK  200  A    between atoms: _489  and  _490
REMARK  201  A    between atoms: _489  and  _492
REMARK  202  A    between atoms: _492  and  _493
REMARK  203  A    between atoms: _496  and  _498
REMARK  204  A    between atoms: _498  and  _499
REMARK  205  A    between atoms: _501  and  _503
REMARK  206  A    between atoms: _503  and  _504
REMARK  207  A    between atoms: _503  and  _506
REMARK  208  A    between atoms: _506  and  _507
REMARK  209  A    between atoms: _507  and  _508
REMARK  210  A    between atoms: _508  and  _509
REMARK  211  A    between atoms: _518  and  _520
REMARK  212  A    between atoms: _520  and  _521
REMARK  213  A    between atoms: _520  and  _523
REMARK  214  A    between atoms: _523  and  _524
REMARK                            x       y       z     vdW  Elec       q    Type
REMARK                         _______ _______ _______ _____ _____    ______ ____
ROOT
ATOM      1  O   HOH     1      -0.754  10.141  13.391  0.00  0.00    +0.000 OA
ENDROOT
TORSDOF 0
REMARK  Name = ../refined-set-2016/1t7j/1t7j_pocket.pdb
REMARK  214 active torsions:
REMARK  status: ('A' for Active; 'I' for Inactive)
REMARK    1  A    between atoms: _1  and  _3
REMARK    2  A    between atoms: _3  and  _4
REMARK    3  A    between atoms: _3  and  _6
REMARK    4  A    between atoms: _6  and  _7
REMARK    5  A    between atoms: _7  and  _8
REMARK    6  A    between atoms: _8  and  _9
REMARK    7  A    between atoms: _18  and  _20
REMARK    8  A    between atoms: _20  and  _21
REMARK    9  A    between atoms: _20  and  _23
REMARK   10  A    between atoms: _23  and  _24
REMARK   11  A    between atoms: _27  and  _29
REMARK   12  A    between atoms: _29  and  _30
REMARK   13  A    between atoms: _29  and  _32
REMARK   14  A    between atoms: _32  and  _33
REMARK   15  A    between atoms: _36  and  _38
REMARK   16  A    between atoms: _38  and  _39
REMARK   17  A    between atoms: _38  and  _41
REMARK   18  A    between atoms: _41  and  _42
REMARK   19  A    between atoms: _45  and  _47
REMARK   20  A    between atoms: _47  and  _48
REMARK   21  A    between atoms: _47  and  _50
REMARK   22  A    between atoms: _50  and  _51
REMARK   23  A    between atoms: _54  and  _56
REMARK   24  A    between atoms: _56  and  _57
REMARK   25  A    between atoms: _59  and  _61
REMARK   26  A    between atoms: _61  and  _62
REMARK   27  A    between atoms: _65  and  _67
REMARK   28  A    between atoms: _67  and  _68
REMARK   29  A    between atoms: _67  and  _70
REMARK   30  A    between atoms: _70  and  _71
REMARK   31  A    between atoms: _74  and  _76
REMARK   32  A    between atoms: _76  and  _77
REMARK   33  A    between atoms: _76  and  _79
REMARK   34  A    between atoms: _79  and  _80
REMARK   35  A    between atoms: _83  and  _85
REMARK   36  A    between atoms: _85  and  _86
REMARK   37  A    between atoms: _85  and  _88
REMARK   38  A    between atoms: _88  and  _89
REMARK   39  A    between atoms: _92  and  _94
REMARK   40  A    between atoms: _94  and  _95
REMARK   41  A    between atoms: _94  and  _97
REMARK   42  A    between atoms: _100  and  _102
REMARK   43  A    between atoms: _102  and  _103
REMARK   44  A    between atoms: _102  and  _105
REMARK   45  A    between atoms: _105  and  _106
REMARK   46  A    between atoms: _109  and  _111
REMARK   47  A    between atoms: _111  and  _112
REMARK   48  A    between atoms: _114  and  _116
REMARK   49  A    between atoms: _116  and  _117
REMARK   50  A    between atoms: _119  and  _121
REMARK   51  A    between atoms: _121  and  _122
REMARK   52  A    between atoms: _121  and  _124
REMARK   53  A    between atoms: _124  and  _125
REMARK   54  A    between atoms: _128  and  _130
REMARK   55  A    between atoms: _130  and  _131
REMARK   56  A    between atoms: _133  and  _135
REMARK   57  A    between atoms: _135  and  _136
REMARK   58  A    between atoms: _138  and  _140
REMARK   59  A    between atoms: _140  and  _141
REMARK   60  A    between atoms: _140  and  _143
REMARK   61  A    between atoms: _143  and  _144
REMARK   62  A    between atoms: _147  and  _149
REMARK   63  A    between atoms: _149  and  _150
REMARK   64  A    between atoms: _149  and  _152
REMARK   65  A    between atoms: _152  and  _153
REMARK   66  A    between atoms: _156  and  _158
REMARK   67  A    between atoms: _158  and  _159
REMARK   68  A    between atoms: _158  and  _161
REMARK   69  A    between atoms: _161  and  _162
REMARK   70  A    between atoms: _166  and  _167
REMARK   71  A    between atoms: _172  and  _174
REMARK   72  A    between atoms: _174  and  _175
REMARK   73  A    between atoms: _174  and  _177
REMARK   74  A    between atoms: _177  and  _178
REMARK   75  A    between atoms: _181  and  _183
REMARK   76  A    between atoms: _183  and  _184
REMARK   77  A    between atoms: _183  and  _186
REMARK   78  A    between atoms: _186  and  _187
REMARK   79  A    between atoms: _192  and  _194
REMARK   80  A    between atoms: _194  and  _195
REMARK   81  A    between atoms: _194  and  _197
REMARK   82  A    between atoms: _200  and  _202
REMARK   83  A    between atoms: _202  and  _203
REMARK   84  A    between atoms: _202  and  _205
REMARK   85  A    between atoms: _205  and  _206
REMARK   86  A    between atoms: _209  and  _211
REMARK   87  A    between atoms: _211  and  _212
REMARK   88  A    between atoms: _214  and  _216
REMARK   89  A    between atoms: _216  and  _217
REMARK   90  A    between atoms: _216  and  _219
REMARK   91  A    between atoms: _219  and  _220
REMARK   92  A    between atoms: _220  and  _221
REMARK   93  A    between atoms: _221  and  _222
REMARK   94  A    between atoms: _231  and  _233
REMARK   95  A    between atoms: _233  and  _234
REMARK   96  A    between atoms: _233  and  _236
REMARK   97  A    between atoms: _236  and  _237
REMARK   98  A    between atoms: _242  and  _244
REMARK   99  A    between atoms: _244  and  _245
REMARK  100  A    between atoms: _244  and  _247
REMARK  101  A    between atoms: _247  and  _248
REMARK  102  A    between atoms: _248  and  _249
REMARK  103  A    between atoms: _249  and  _250
REMARK  104  A    between atoms: _259  and  _261
REMARK  105  A    between atoms: _261  and  _262
REMARK  106  A    between atoms: _261  and  _264
REMARK  107  A    between atoms: _264  and  _265
REMARK  108  A    between atoms: _268  and  _270
REMARK  109  A    between atoms: _270  and  _271
REMARK  110  A    between atoms: _270  and  _273
REMARK  111  A    between atoms: _273  and  _274
REMARK  112  A    between atoms: _277  and  _279
REMARK  113  A    between atoms: _279  and  _280
REMARK  114  A    between atoms: _279  and  _282
REMARK  115  A    between atoms: _282  and  _283
REMARK  116  A    between atoms: _286  and  _288
REMARK  117  A    between atoms: _288  and  _289
REMARK  118  A    between atoms: _288  and  _291
REMARK  119  A    between atoms: _291  and  _292
REMARK  120  A    between atoms: _295  and  _297
REMARK  121  A    between atoms: _297  and  _298
REMARK  122  A    between atoms: _300  and  _302
REMARK  123  A    between atoms: _302  and  _303
REMARK  124  A    between atoms: _306  and  _308
REMARK  125  A    between atoms: _308  and  _309
REMARK  126  A    between atoms: _308  and  _311
REMARK  127  A    between atoms: _311  and  _312
REMARK  128  A    between atoms: _315  and  _317
REMARK  129  A    between atoms: _317  and  _318
REMARK  130  A    between atoms: _317  and  _320
REMARK  131  A    between atoms: _320  and  _321
REMARK  132  A    between atoms: _324  and  _326
REMARK  133  A    between atoms: _326  and  _327
REMARK  134  A    between atoms: _326  and  _329
REMARK  135  A    between atoms: _329  and  _330
REMARK  136  A    between atoms: _333  and  _335
REMARK  137  A    between atoms: _335  and  _336
REMARK  138  A    between atoms: _335  and  _338
REMARK  139  A    between atoms: _341  and  _343
REMARK  140  A    between atoms: _343  and  _344
REMARK  141  A    between atoms: _343  and  _346
REMARK  142  A    between atoms: _346  and  _347
REMARK  143  A    between atoms: _350  and  _352
REMARK  144  A    between atoms: _352  and  _353
REMARK  145  A    between atoms: _352  and  _355
REMARK  146  A    between atoms: _355  and  _356
REMARK  147  A    between atoms: _356  and  _357
REMARK  148  A    between atoms: _357  and  _358
REMARK  149  A    between atoms: _358  and  _359
REMARK  150  A    between atoms: _363  and  _365
REMARK  151  A    between atoms: _365  and  _366
REMARK  152  A    between atoms: _365  and  _368
REMARK  153  A    between atoms: _368  and  _369
REMARK  154  A    between atoms: _369  and  _370
REMARK  155  A    between atoms: _372  and  _374
REMARK  156  A    between atoms: _374  and  _375
REMARK  157  A    between atoms: _374  and  _377
REMARK  158  A    between atoms: _377  and  _378
REMARK  159  A    between atoms: _381  and  _383
REMARK  160  A    between atoms: _383  and  _384
REMARK  161  A    between atoms: _386  and  _388
REMARK  162  A    between atoms: _388  and  _389
REMARK  163  A    between atoms: _391  and  _393
REMARK  164  A    between atoms: _393  and  _394
REMARK  165  A    between atoms: _393  and  _396
REMARK  166  A    between atoms: _396  and  _397
REMARK  167  A    between atoms: _400  and  _402
REMARK  168  A    between atoms: _402  and  _403
REMARK  169  A    between atoms: _405  and  _407
REMARK  170  A    between atoms: _407  and  _408
REMARK  171  A    between atoms: _410  and  _412
REMARK  172  A    between atoms: _412  and  _413
REMARK  173  A    between atoms: _412  and  _415
REMARK  174  A    between atoms: _415  and  _416
REMARK  175  A    between atoms: _419  and  _421
REMARK  176  A    between atoms: _421  and  _422
REMARK  177  A    between atoms: _421  and  _424
REMARK  178  A    between atoms: _427  and  _429
REMARK  179  A    between atoms: _429  and  _430
REMARK  180  A    between atoms: _429  and  _432
REMARK  181  A    between atoms: _432  and  _433
REMARK  182  A    between atoms: _437  and  _438
REMARK  183  A    between atoms: _443  and  _445
REMARK  184  A    between atoms: _445  and  _446
REMARK  185  A    between atoms: _445  and  _448
REMARK  186  A    between atoms: _448  and  _449
REMARK  187  A    between atoms: _453  and  _454
REMARK  188  A    between atoms: _459  and  _461
REMARK  189  A    between atoms: _461  and  _462
REMARK  190  A    between atoms: _461  and  _464
REMARK  191  A    between atoms: _464  and  _465
REMARK  192  A    between atoms: _468  and  _470
REMARK  193  A    between atoms: _470  and  _471
REMARK  194  A    between atoms: _470  and  _473
REMARK  195  A    between atoms: _473  and  _474
REMARK  196  A    between atoms: _479  and  _481
REMARK  197  A    between atoms: _481  and  _482
REMARK  198  A    between atoms: _481  and  _484
REMARK  199  A    between atoms: _487  and  _489
REMARK  200  A    between atoms: _489  and  _490
REMARK  201  A    between atoms: _489  and  _492
REMARK  202  A    between atoms: _492  and  _493
REMARK  203  A    between atoms: _496  and  _498
REMARK  204  A    between atoms: _498  and  _499
REMARK  205  A    between atoms: _501  and  _503
REMARK  206  A    between atoms: _503  and  _504
REMARK  207  A    between atoms: _503  and  _506
REMARK  208  A    between atoms: _506  and  _507
REMARK  209  A    between atoms: _507  and  _508
REMARK  210  A    between atoms: _508  and  _509
REMARK  211  A    between atoms: _518  and  _520
REMARK  212  A    between atoms: _520  and  _521
REMARK  213  A    between atoms: _520  and  _523
REMARK  214  A    between atoms: _523  and  _524
REMARK                            x       y       z     vdW  Elec       q    Type
REMARK                         _______ _______ _______ _____ _____    ______ ____
ROOT
ATOM      1  O   HOH     1      10.149  -4.855   5.294  0.00  0.00    +0.000 OA
ENDROOT
TORSDOF 0
REMARK  Name = ../refined-set-2016/1t7j/1t7j_pocket.pdb
REMARK  214 active torsions:
REMARK  status: ('A' for Active; 'I' for Inactive)
REMARK    1  A    between atoms: _1  and  _3
REMARK    2  A    between atoms: _3  and  _4
REMARK    3  A    between atoms: _3  and  _6
REMARK    4  A    between atoms: _6  and  _7
REMARK    5  A    between atoms: _7  and  _8
REMARK    6  A    between atoms: _8  and  _9
REMARK    7  A    between atoms: _18  and  _20
REMARK    8  A    between atoms: _20  and  _21
REMARK    9  A    between atoms: _20  and  _23
REMARK   10  A    between atoms: _23  and  _24
REMARK   11  A    between atoms: _27  and  _29
REMARK   12  A    between atoms: _29  and  _30
REMARK   13  A    between atoms: _29  and  _32
REMARK   14  A    between atoms: _32  and  _33
REMARK   15  A    between atoms: _36  and  _38
REMARK   16  A    between atoms: _38  and  _39
REMARK   17  A    between atoms: _38  and  _41
REMARK   18  A    between atoms: _41  and  _42
REMARK   19  A    between atoms: _45  and  _47
REMARK   20  A    between atoms: _47  and  _48
REMARK   21  A    between atoms: _47  and  _50
REMARK   22  A    between atoms: _50  and  _51
REMARK   23  A    between atoms: _54  and  _56
REMARK   24  A    between atoms: _56  and  _57
REMARK   25  A    between atoms: _59  and  _61
REMARK   26  A    between atoms: _61  and  _62
REMARK   27  A    between atoms: _65  and  _67
REMARK   28  A    between atoms: _67  and  _68
REMARK   29  A    between atoms: _67  and  _70
REMARK   30  A    between atoms: _70  and  _71
REMARK   31  A    between atoms: _74  and  _76
REMARK   32  A    between atoms: _76  and  _77
REMARK   33  A    between atoms: _76  and  _79
REMARK   34  A    between atoms: _79  and  _80
REMARK   35  A    between atoms: _83  and  _85
REMARK   36  A    between atoms: _85  and  _86
REMARK   37  A    between atoms: _85  and  _88
REMARK   38  A    between atoms: _88  and  _89
REMARK   39  A    between atoms: _92  and  _94
REMARK   40  A    between atoms: _94  and  _95
REMARK   41  A    between atoms: _94  and  _97
REMARK   42  A    between atoms: _100  and  _102
REMARK   43  A    between atoms: _102  and  _103
REMARK   44  A    between atoms: _102  and  _105
REMARK   45  A    between atoms: _105  and  _106
REMARK   46  A    between atoms: _109  and  _111
REMARK   47  A    between atoms: _111  and  _112
REMARK   48  A    between atoms: _114  and  _116
REMARK   49  A    between atoms: _116  and  _117
REMARK   50  A    between atoms: _119  and  _121
REMARK   51  A    between atoms: _121  and  _122
REMARK   52  A    between atoms: _121  and  _124
REMARK   53  A    between atoms: _124  and  _125
REMARK   54  A    between atoms: _128  and  _130
REMARK   55  A    between atoms: _130  and  _131
REMARK   56  A    between atoms: _133  and  _135
REMARK   57  A    between atoms: _135  and  _136
REMARK   58  A    between atoms: _138  and  _140
REMARK   59  A    between atoms: _140  and  _141
REMARK   60  A    between atoms: _140  and  _143
REMARK   61  A    between atoms: _143  and  _144
REMARK   62  A    between atoms: _147  and  _149
REMARK   63  A    between atoms: _149  and  _150
REMARK   64  A    between atoms: _149  and  _152
REMARK   65  A    between atoms: _152  and  _153
REMARK   66  A    between atoms: _156  and  _158
REMARK   67  A    between atoms: _158  and  _159
REMARK   68  A    between atoms: _158  and  _161
REMARK   69  A    between atoms: _161  and  _162
REMARK   70  A    between atoms: _166  and  _167
REMARK   71  A    between atoms: _172  and  _174
REMARK   72  A    between atoms: _174  and  _175
REMARK   73  A    between atoms: _174  and  _177
REMARK   74  A    between atoms: _177  and  _178
REMARK   75  A    between atoms: _181  and  _183
REMARK   76  A    between atoms: _183  and  _184
REMARK   77  A    between atoms: _183  and  _186
REMARK   78  A    between atoms: _186  and  _187
REMARK   79  A    between atoms: _192  and  _194
REMARK   80  A    between atoms: _194  and  _195
REMARK   81  A    between atoms: _194  and  _197
REMARK   82  A    between atoms: _200  and  _202
REMARK   83  A    between atoms: _202  and  _203
REMARK   84  A    between atoms: _202  and  _205
REMARK   85  A    between atoms: _205  and  _206
REMARK   86  A    between atoms: _209  and  _211
REMARK   87  A    between atoms: _211  and  _212
REMARK   88  A    between atoms: _214  and  _216
REMARK   89  A    between atoms: _216  and  _217
REMARK   90  A    between atoms: _216  and  _219
REMARK   91  A    between atoms: _219  and  _220
REMARK   92  A    between atoms: _220  and  _221
REMARK   93  A    between atoms: _221  and  _222
REMARK   94  A    between atoms: _231  and  _233
REMARK   95  A    between atoms: _233  and  _234
REMARK   96  A    between atoms: _233  and  _236
REMARK   97  A    between atoms: _236  and  _237
REMARK   98  A    between atoms: _242  and  _244
REMARK   99  A    between atoms: _244  and  _245
REMARK  100  A    between atoms: _244  and  _247
REMARK  101  A    between atoms: _247  and  _248
REMARK  102  A    between atoms: _248  and  _249
REMARK  103  A    between atoms: _249  and  _250
REMARK  104  A    between atoms: _259  and  _261
REMARK  105  A    between atoms: _261  and  _262
REMARK  106  A    between atoms: _261  and  _264
REMARK  107  A    between atoms: _264  and  _265
REMARK  108  A    between atoms: _268  and  _270
REMARK  109  A    between atoms: _270  and  _271
REMARK  110  A    between atoms: _270  and  _273
REMARK  111  A    between atoms: _273  and  _274
REMARK  112  A    between atoms: _277  and  _279
REMARK  113  A    between atoms: _279  and  _280
REMARK  114  A    between atoms: _279  and  _282
REMARK  115  A    between atoms: _282  and  _283
REMARK  116  A    between atoms: _286  and  _288
REMARK  117  A    between atoms: _288  and  _289
REMARK  118  A    between atoms: _288  and  _291
REMARK  119  A    between atoms: _291  and  _292
REMARK  120  A    between atoms: _295  and  _297
REMARK  121  A    between atoms: _297  and  _298
REMARK  122  A    between atoms: _300  and  _302
REMARK  123  A    between atoms: _302  and  _303
REMARK  124  A    between atoms: _306  and  _308
REMARK  125  A    between atoms: _308  and  _309
REMARK  126  A    between atoms: _308  and  _311
REMARK  127  A    between atoms: _311  and  _312
REMARK  128  A    between atoms: _315  and  _317
REMARK  129  A    between atoms: _317  and  _318
REMARK  130  A    between atoms: _317  and  _320
REMARK  131  A    between atoms: _320  and  _321
REMARK  132  A    between atoms: _324  and  _326
REMARK  133  A    between atoms: _326  and  _327
REMARK  134  A    between atoms: _326  and  _329
REMARK  135  A    between atoms: _329  and  _330
REMARK  136  A    between atoms: _333  and  _335
REMARK  137  A    between atoms: _335  and  _336
REMARK  138  A    between atoms: _335  and  _338
REMARK  139  A    between atoms: _341  and  _343
REMARK  140  A    between atoms: _343  and  _344
REMARK  141  A    between atoms: _343  and  _346
REMARK  142  A    between atoms: _346  and  _347
REMARK  143  A    between atoms: _350  and  _352
REMARK  144  A    between atoms: _352  and  _353
REMARK  145  A    between atoms: _352  and  _355
REMARK  146  A    between atoms: _355  and  _356
REMARK  147  A    between atoms: _356  and  _357
REMARK  148  A    between atoms: _357  and  _358
REMARK  149  A    between atoms: _358  and  _359
REMARK  150  A    between atoms: _363  and  _365
REMARK  151  A    between atoms: _365  and  _366
REMARK  152  A    between atoms: _365  and  _368
REMARK  153  A    between atoms: _368  and  _369
REMARK  154  A    between atoms: _369  and  _370
REMARK  155  A    between atoms: _372  and  _374
REMARK  156  A    between atoms: _374  and  _375
REMARK  157  A    between atoms: _374  and  _377
REMARK  158  A    between atoms: _377  and  _378
REMARK  159  A    between atoms: _381  and  _383
REMARK  160  A    between atoms: _383  and  _384
REMARK  161  A    between atoms: _386  and  _388
REMARK  162  A    between atoms: _388  and  _389
REMARK  163  A    between atoms: _391  and  _393
REMARK  164  A    between atoms: _393  and  _394
REMARK  165  A    between atoms: _393  and  _396
REMARK  166  A    between atoms: _396  and  _397
REMARK  167  A    between atoms: _400  and  _402
REMARK  168  A    between atoms: _402  and  _403
REMARK  169  A    between atoms: _405  and  _407
REMARK  170  A    between atoms: _407  and  _408
REMARK  171  A    between atoms: _410  and  _412
REMARK  172  A    between atoms: _412  and  _413
REMARK  173  A    between atoms: _412  and  _415
REMARK  174  A    between atoms: _415  and  _416
REMARK  175  A    between atoms: _419  and  _421
REMARK  176  A    between atoms: _421  and  _422
REMARK  177  A    between atoms: _421  and  _424
REMARK  178  A    between atoms: _427  and  _429
REMARK  179  A    between atoms: _429  and  _430
REMARK  180  A    between atoms: _429  and  _432
REMARK  181  A    between atoms: _432  and  _433
REMARK  182  A    between atoms: _437  and  _438
REMARK  183  A    between atoms: _443  and  _445
REMARK  184  A    between atoms: _445  and  _446
REMARK  185  A    between atoms: _445  and  _448
REMARK  186  A    between atoms: _448  and  _449
REMARK  187  A    between atoms: _453  and  _454
REMARK  188  A    between atoms: _459  and  _461
REMARK  189  A    between atoms: _461  and  _462
REMARK  190  A    between atoms: _461  and  _464
REMARK  191  A    between atoms: _464  and  _465
REMARK  192  A    between atoms: _468  and  _470
REMARK  193  A    between atoms: _470  and  _471
REMARK  194  A    between atoms: _470  and  _473
REMARK  195  A    between atoms: _473  and  _474
REMARK  196  A    between atoms: _479  and  _481
REMARK  197  A    between atoms: _481  and  _482
REMARK  198  A    between atoms: _481  and  _484
REMARK  199  A    between atoms: _487  and  _489
REMARK  200  A    between atoms: _489  and  _490
REMARK  201  A    between atoms: _489  and  _492
REMARK  202  A    between atoms: _492  and  _493
REMARK  203  A    between atoms: _496  and  _498
REMARK  204  A    between atoms: _498  and  _499
REMARK  205  A    between atoms: _501  and  _503
REMARK  206  A    between atoms: _503  and  _504
REMARK  207  A    between atoms: _503  and  _506
REMARK  208  A    between atoms: _506  and  _507
REMARK  209  A    between atoms: _507  and  _508
REMARK  210  A    between atoms: _508  and  _509
REMARK  211  A    between atoms: _518  and  _520
REMARK  212  A    between atoms: _520  and  _521
REMARK  213  A    between atoms: _520  and  _523
REMARK  214  A    between atoms: _523  and  _524
REMARK                            x       y       z     vdW  Elec       q    Type
REMARK                         _______ _______ _______ _____ _____    ______ ____
ROOT
ATOM      1  O   HOH     1       5.640  -3.365  23.452  0.00  0.00    +0.000 OA
ENDROOT
TORSDOF 0
REMARK  Name = ../refined-set-2016/1t7j/1t7j_pocket.pdb
REMARK  214 active torsions:
REMARK  status: ('A' for Active; 'I' for Inactive)
REMARK    1  A    between atoms: _1  and  _3
REMARK    2  A    between atoms: _3  and  _4
REMARK    3  A    between atoms: _3  and  _6
REMARK    4  A    between atoms: _6  and  _7
REMARK    5  A    between atoms: _7  and  _8
REMARK    6  A    between atoms: _8  and  _9
REMARK    7  A    between atoms: _18  and  _20
REMARK    8  A    between atoms: _20  and  _21
REMARK    9  A    between atoms: _20  and  _23
REMARK   10  A    between atoms: _23  and  _24
REMARK   11  A    between atoms: _27  and  _29
REMARK   12  A    between atoms: _29  and  _30
REMARK   13  A    between atoms: _29  and  _32
REMARK   14  A    between atoms: _32  and  _33
REMARK   15  A    between atoms: _36  and  _38
REMARK   16  A    between atoms: _38  and  _39
REMARK   17  A    between atoms: _38  and  _41
REMARK   18  A    between atoms: _41  and  _42
REMARK   19  A    between atoms: _45  and  _47
REMARK   20  A    between atoms: _47  and  _48
REMARK   21  A    between atoms: _47  and  _50
REMARK   22  A    between atoms: _50  and  _51
REMARK   23  A    between atoms: _54  and  _56
REMARK   24  A    between atoms: _56  and  _57
REMARK   25  A    between atoms: _59  and  _61
REMARK   26  A    between atoms: _61  and  _62
REMARK   27  A    between atoms: _65  and  _67
REMARK   28  A    between atoms: _67  and  _68
REMARK   29  A    between atoms: _67  and  _70
REMARK   30  A    between atoms: _70  and  _71
REMARK   31  A    between atoms: _74  and  _76
REMARK   32  A    between atoms: _76  and  _77
REMARK   33  A    between atoms: _76  and  _79
REMARK   34  A    between atoms: _79  and  _80
REMARK   35  A    between atoms: _83  and  _85
REMARK   36  A    between atoms: _85  and  _86
REMARK   37  A    between atoms: _85  and  _88
REMARK   38  A    between atoms: _88  and  _89
REMARK   39  A    between atoms: _92  and  _94
REMARK   40  A    between atoms: _94  and  _95
REMARK   41  A    between atoms: _94  and  _97
REMARK   42  A    between atoms: _100  and  _102
REMARK   43  A    between atoms: _102  and  _103
REMARK   44  A    between atoms: _102  and  _105
REMARK   45  A    between atoms: _105  and  _106
REMARK   46  A    between atoms: _109  and  _111
REMARK   47  A    between atoms: _111  and  _112
REMARK   48  A    between atoms: _114  and  _116
REMARK   49  A    between atoms: _116  and  _117
REMARK   50  A    between atoms: _119  and  _121
REMARK   51  A    between atoms: _121  and  _122
REMARK   52  A    between atoms: _121  and  _124
REMARK   53  A    between atoms: _124  and  _125
REMARK   54  A    between atoms: _128  and  _130
REMARK   55  A    between atoms: _130  and  _131
REMARK   56  A    between atoms: _133  and  _135
REMARK   57  A    between atoms: _135  and  _136
REMARK   58  A    between atoms: _138  and  _140
REMARK   59  A    between atoms: _140  and  _141
REMARK   60  A    between atoms: _140  and  _143
REMARK   61  A    between atoms: _143  and  _144
REMARK   62  A    between atoms: _147  and  _149
REMARK   63  A    between atoms: _149  and  _150
REMARK   64  A    between atoms: _149  and  _152
REMARK   65  A    between atoms: _152  and  _153
REMARK   66  A    between atoms: _156  and  _158
REMARK   67  A    between atoms: _158  and  _159
REMARK   68  A    between atoms: _158  and  _161
REMARK   69  A    between atoms: _161  and  _162
REMARK   70  A    between atoms: _166  and  _167
REMARK   71  A    between atoms: _172  and  _174
REMARK   72  A    between atoms: _174  and  _175
REMARK   73  A    between atoms: _174  and  _177
REMARK   74  A    between atoms: _177  and  _178
REMARK   75  A    between atoms: _181  and  _183
REMARK   76  A    between atoms: _183  and  _184
REMARK   77  A    between atoms: _183  and  _186
REMARK   78  A    between atoms: _186  and  _187
REMARK   79  A    between atoms: _192  and  _194
REMARK   80  A    between atoms: _194  and  _195
REMARK   81  A    between atoms: _194  and  _197
REMARK   82  A    between atoms: _200  and  _202
REMARK   83  A    between atoms: _202  and  _203
REMARK   84  A    between atoms: _202  and  _205
REMARK   85  A    between atoms: _205  and  _206
REMARK   86  A    between atoms: _209  and  _211
REMARK   87  A    between atoms: _211  and  _212
REMARK   88  A    between atoms: _214  and  _216
REMARK   89  A    between atoms: _216  and  _217
REMARK   90  A    between atoms: _216  and  _219
REMARK   91  A    between atoms: _219  and  _220
REMARK   92  A    between atoms: _220  and  _221
REMARK   93  A    between atoms: _221  and  _222
REMARK   94  A    between atoms: _231  and  _233
REMARK   95  A    between atoms: _233  and  _234
REMARK   96  A    between atoms: _233  and  _236
REMARK   97  A    between atoms: _236  and  _237
REMARK   98  A    between atoms: _242  and  _244
REMARK   99  A    between atoms: _244  and  _245
REMARK  100  A    between atoms: _244  and  _247
REMARK  101  A    between atoms: _247  and  _248
REMARK  102  A    between atoms: _248  and  _249
REMARK  103  A    between atoms: _249  and  _250
REMARK  104  A    between atoms: _259  and  _261
REMARK  105  A    between atoms: _261  and  _262
REMARK  106  A    between atoms: _261  and  _264
REMARK  107  A    between atoms: _264  and  _265
REMARK  108  A    between atoms: _268  and  _270
REMARK  109  A    between atoms: _270  and  _271
REMARK  110  A    between atoms: _270  and  _273
REMARK  111  A    between atoms: _273  and  _274
REMARK  112  A    between atoms: _277  and  _279
REMARK  113  A    between atoms: _279  and  _280
REMARK  114  A    between atoms: _279  and  _282
REMARK  115  A    between atoms: _282  and  _283
REMARK  116  A    between atoms: _286  and  _288
REMARK  117  A    between atoms: _288  and  _289
REMARK  118  A    between atoms: _288  and  _291
REMARK  119  A    between atoms: _291  and  _292
REMARK  120  A    between atoms: _295  and  _297
REMARK  121  A    between atoms: _297  and  _298
REMARK  122  A    between atoms: _300  and  _302
REMARK  123  A    between atoms: _302  and  _303
REMARK  124  A    between atoms: _306  and  _308
REMARK  125  A    between atoms: _308  and  _309
REMARK  126  A    between atoms: _308  and  _311
REMARK  127  A    between atoms: _311  and  _312
REMARK  128  A    between atoms: _315  and  _317
REMARK  129  A    between atoms: _317  and  _318
REMARK  130  A    between atoms: _317  and  _320
REMARK  131  A    between atoms: _320  and  _321
REMARK  132  A    between atoms: _324  and  _326
REMARK  133  A    between atoms: _326  and  _327
REMARK  134  A    between atoms: _326  and  _329
REMARK  135  A    between atoms: _329  and  _330
REMARK  136  A    between atoms: _333  and  _335
REMARK  137  A    between atoms: _335  and  _336
REMARK  138  A    between atoms: _335  and  _338
REMARK  139  A    between atoms: _341  and  _343
REMARK  140  A    between atoms: _343  and  _344
REMARK  141  A    between atoms: _343  and  _346
REMARK  142  A    between atoms: _346  and  _347
REMARK  143  A    between atoms: _350  and  _352
REMARK  144  A    between atoms: _352  and  _353
REMARK  145  A    between atoms: _352  and  _355
REMARK  146  A    between atoms: _355  and  _356
REMARK  147  A    between atoms: _356  and  _357
REMARK  148  A    between atoms: _357  and  _358
REMARK  149  A    between atoms: _358  and  _359
REMARK  150  A    between atoms: _363  and  _365
REMARK  151  A    between atoms: _365  and  _366
REMARK  152  A    between atoms: _365  and  _368
REMARK  153  A    between atoms: _368  and  _369
REMARK  154  A    between atoms: _369  and  _370
REMARK  155  A    between atoms: _372  and  _374
REMARK  156  A    between atoms: _374  and  _375
REMARK  157  A    between atoms: _374  and  _377
REMARK  158  A    between atoms: _377  and  _378
REMARK  159  A    between atoms: _381  and  _383
REMARK  160  A    between atoms: _383  and  _384
REMARK  161  A    between atoms: _386  and  _388
REMARK  162  A    between atoms: _388  and  _389
REMARK  163  A    between atoms: _391  and  _393
REMARK  164  A    between atoms: _393  and  _394
REMARK  165  A    between atoms: _393  and  _396
REMARK  166  A    between atoms: _396  and  _397
REMARK  167  A    between atoms: _400  and  _402
REMARK  168  A    between atoms: _402  and  _403
REMARK  169  A    between atoms: _405  and  _407
REMARK  170  A    between atoms: _407  and  _408
REMARK  171  A    between atoms: _410  and  _412
REMARK  172  A    between atoms: _412  and  _413
REMARK  173  A    between atoms: _412  and  _415
REMARK  174  A    between atoms: _415  and  _416
REMARK  175  A    between atoms: _419  and  _421
REMARK  176  A    between atoms: _421  and  _422
REMARK  177  A    between atoms: _421  and  _424
REMARK  178  A    between atoms: _427  and  _429
REMARK  179  A    between atoms: _429  and  _430
REMARK  180  A    between atoms: _429  and  _432
REMARK  181  A    between atoms: _432  and  _433
REMARK  182  A    between atoms: _437  and  _438
REMARK  183  A    between atoms: _443  and  _445
REMARK  184  A    between atoms: _445  and  _446
REMARK  185  A    between atoms: _445  and  _448
REMARK  186  A    between atoms: _448  and  _449
REMARK  187  A    between atoms: _453  and  _454
REMARK  188  A    between atoms: _459  and  _461
REMARK  189  A    between atoms: _461  and  _462
REMARK  190  A    between atoms: _461  and  _464
REMARK  191  A    between atoms: _464  and  _465
REMARK  192  A    between atoms: _468  and  _470
REMARK  193  A    between atoms: _470  and  _471
REMARK  194  A    between atoms: _470  and  _473
REMARK  195  A    between atoms: _473  and  _474
REMARK  196  A    between atoms: _479  and  _481
REMARK  197  A    between atoms: _481  and  _482
REMARK  198  A    between atoms: _481  and  _484
REMARK  199  A    between atoms: _487  and  _489
REMARK  200  A    between atoms: _489  and  _490
REMARK  201  A    between atoms: _489  and  _492
REMARK  202  A    between atoms: _492  and  _493
REMARK  203  A    between atoms: _496  and  _498
REMARK  204  A    between atoms: _498  and  _499
REMARK  205  A    between atoms: _501  and  _503
REMARK  206  A    between atoms: _503  and  _504
REMARK  207  A    between atoms: _503  and  _506
REMARK  208  A    between atoms: _506  and  _507
REMARK  209  A    between atoms: _507  and  _508
REMARK  210  A    between atoms: _508  and  _509
REMARK  211  A    between atoms: _518  and  _520
REMARK  212  A    between atoms: _520  and  _521
REMARK  213  A    between atoms: _520  and  _523
REMARK  214  A    between atoms: _523  and  _524
REMARK                            x       y       z     vdW  Elec       q    Type
REMARK                         _______ _______ _______ _____ _____    ______ ____
ROOT
ATOM      1  O   HOH     1       7.831 -11.214  16.481  0.00  0.00    +0.000 OA
ENDROOT
TORSDOF 0
REMARK  Name = ../refined-set-2016/1t7j/1t7j_pocket.pdb
REMARK  214 active torsions:
REMARK  status: ('A' for Active; 'I' for Inactive)
REMARK    1  A    between atoms: _1  and  _3
REMARK    2  A    between atoms: _3  and  _4
REMARK    3  A    between atoms: _3  and  _6
REMARK    4  A    between atoms: _6  and  _7
REMARK    5  A    between atoms: _7  and  _8
REMARK    6  A    between atoms: _8  and  _9
REMARK    7  A    between atoms: _18  and  _20
REMARK    8  A    between atoms: _20  and  _21
REMARK    9  A    between atoms: _20  and  _23
REMARK   10  A    between atoms: _23  and  _24
REMARK   11  A    between atoms: _27  and  _29
REMARK   12  A    between atoms: _29  and  _30
REMARK   13  A    between atoms: _29  and  _32
REMARK   14  A    between atoms: _32  and  _33
REMARK   15  A    between atoms: _36  and  _38
REMARK   16  A    between atoms: _38  and  _39
REMARK   17  A    between atoms: _38  and  _41
REMARK   18  A    between atoms: _41  and  _42
REMARK   19  A    between atoms: _45  and  _47
REMARK   20  A    between atoms: _47  and  _48
REMARK   21  A    between atoms: _47  and  _50
REMARK   22  A    between atoms: _50  and  _51
REMARK   23  A    between atoms: _54  and  _56
REMARK   24  A    between atoms: _56  and  _57
REMARK   25  A    between atoms: _59  and  _61
REMARK   26  A    between atoms: _61  and  _62
REMARK   27  A    between atoms: _65  and  _67
REMARK   28  A    between atoms: _67  and  _68
REMARK   29  A    between atoms: _67  and  _70
REMARK   30  A    between atoms: _70  and  _71
REMARK   31  A    between atoms: _74  and  _76
REMARK   32  A    between atoms: _76  and  _77
REMARK   33  A    between atoms: _76  and  _79
REMARK   34  A    between atoms: _79  and  _80
REMARK   35  A    between atoms: _83  and  _85
REMARK   36  A    between atoms: _85  and  _86
REMARK   37  A    between atoms: _85  and  _88
REMARK   38  A    between atoms: _88  and  _89
REMARK   39  A    between atoms: _92  and  _94
REMARK   40  A    between atoms: _94  and  _95
REMARK   41  A    between atoms: _94  and  _97
REMARK   42  A    between atoms: _100  and  _102
REMARK   43  A    between atoms: _102  and  _103
REMARK   44  A    between atoms: _102  and  _105
REMARK   45  A    between atoms: _105  and  _106
REMARK   46  A    between atoms: _109  and  _111
REMARK   47  A    between atoms: _111  and  _112
REMARK   48  A    between atoms: _114  and  _116
REMARK   49  A    between atoms: _116  and  _117
REMARK   50  A    between atoms: _119  and  _121
REMARK   51  A    between atoms: _121  and  _122
REMARK   52  A    between atoms: _121  and  _124
REMARK   53  A    between atoms: _124  and  _125
REMARK   54  A    between atoms: _128  and  _130
REMARK   55  A    between atoms: _130  and  _131
REMARK   56  A    between atoms: _133  and  _135
REMARK   57  A    between atoms: _135  and  _136
REMARK   58  A    between atoms: _138  and  _140
REMARK   59  A    between atoms: _140  and  _141
REMARK   60  A    between atoms: _140  and  _143
REMARK   61  A    between atoms: _143  and  _144
REMARK   62  A    between atoms: _147  and  _149
REMARK   63  A    between atoms: _149  and  _150
REMARK   64  A    between atoms: _149  and  _152
REMARK   65  A    between atoms: _152  and  _153
REMARK   66  A    between atoms: _156  and  _158
REMARK   67  A    between atoms: _158  and  _159
REMARK   68  A    between atoms: _158  and  _161
REMARK   69  A    between atoms: _161  and  _162
REMARK   70  A    between atoms: _166  and  _167
REMARK   71  A    between atoms: _172  and  _174
REMARK   72  A    between atoms: _174  and  _175
REMARK   73  A    between atoms: _174  and  _177
REMARK   74  A    between atoms: _177  and  _178
REMARK   75  A    between atoms: _181  and  _183
REMARK   76  A    between atoms: _183  and  _184
REMARK   77  A    between atoms: _183  and  _186
REMARK   78  A    between atoms: _186  and  _187
REMARK   79  A    between atoms: _192  and  _194
REMARK   80  A    between atoms: _194  and  _195
REMARK   81  A    between atoms: _194  and  _197
REMARK   82  A    between atoms: _200  and  _202
REMARK   83  A    between atoms: _202  and  _203
REMARK   84  A    between atoms: _202  and  _205
REMARK   85  A    between atoms: _205  and  _206
REMARK   86  A    between atoms: _209  and  _211
REMARK   87  A    between atoms: _211  and  _212
REMARK   88  A    between atoms: _214  and  _216
REMARK   89  A    between atoms: _216  and  _217
REMARK   90  A    between atoms: _216  and  _219
REMARK   91  A    between atoms: _219  and  _220
REMARK   92  A    between atoms: _220  and  _221
REMARK   93  A    between atoms: _221  and  _222
REMARK   94  A    between atoms: _231  and  _233
REMARK   95  A    between atoms: _233  and  _234
REMARK   96  A    between atoms: _233  and  _236
REMARK   97  A    between atoms: _236  and  _237
REMARK   98  A    between atoms: _242  and  _244
REMARK   99  A    between atoms: _244  and  _245
REMARK  100  A    between atoms: _244  and  _247
REMARK  101  A    between atoms: _247  and  _248
REMARK  102  A    between atoms: _248  and  _249
REMARK  103  A    between atoms: _249  and  _250
REMARK  104  A    between atoms: _259  and  _261
REMARK  105  A    between atoms: _261  and  _262
REMARK  106  A    between atoms: _261  and  _264
REMARK  107  A    between atoms: _264  and  _265
REMARK  108  A    between atoms: _268  and  _270
REMARK  109  A    between atoms: _270  and  _271
REMARK  110  A    between atoms: _270  and  _273
REMARK  111  A    between atoms: _273  and  _274
REMARK  112  A    between atoms: _277  and  _279
REMARK  113  A    between atoms: _279  and  _280
REMARK  114  A    between atoms: _279  and  _282
REMARK  115  A    between atoms: _282  and  _283
REMARK  116  A    between atoms: _286  and  _288
REMARK  117  A    between atoms: _288  and  _289
REMARK  118  A    between atoms: _288  and  _291
REMARK  119  A    between atoms: _291  and  _292
REMARK  120  A    between atoms: _295  and  _297
REMARK  121  A    between atoms: _297  and  _298
REMARK  122  A    between atoms: _300  and  _302
REMARK  123  A    between atoms: _302  and  _303
REMARK  124  A    between atoms: _306  and  _308
REMARK  125  A    between atoms: _308  and  _309
REMARK  126  A    between atoms: _308  and  _311
REMARK  127  A    between atoms: _311  and  _312
REMARK  128  A    between atoms: _315  and  _317
REMARK  129  A    between atoms: _317  and  _318
REMARK  130  A    between atoms: _317  and  _320
REMARK  131  A    between atoms: _320  and  _321
REMARK  132  A    between atoms: _324  and  _326
REMARK  133  A    between atoms: _326  and  _327
REMARK  134  A    between atoms: _326  and  _329
REMARK  135  A    between atoms: _329  and  _330
REMARK  136  A    between atoms: _333  and  _335
REMARK  137  A    between atoms: _335  and  _336
REMARK  138  A    between atoms: _335  and  _338
REMARK  139  A    between atoms: _341  and  _343
REMARK  140  A    between atoms: _343  and  _344
REMARK  141  A    between atoms: _343  and  _346
REMARK  142  A    between atoms: _346  and  _347
REMARK  143  A    between atoms: _350  and  _352
REMARK  144  A    between atoms: _352  and  _353
REMARK  145  A    between atoms: _352  and  _355
REMARK  146  A    between atoms: _355  and  _356
REMARK  147  A    between atoms: _356  and  _357
REMARK  148  A    between atoms: _357  and  _358
REMARK  149  A    between atoms: _358  and  _359
REMARK  150  A    between atoms: _363  and  _365
REMARK  151  A    between atoms: _365  and  _366
REMARK  152  A    between atoms: _365  and  _368
REMARK  153  A    between atoms: _368  and  _369
REMARK  154  A    between atoms: _369  and  _370
REMARK  155  A    between atoms: _372  and  _374
REMARK  156  A    between atoms: _374  and  _375
REMARK  157  A    between atoms: _374  and  _377
REMARK  158  A    between atoms: _377  and  _378
REMARK  159  A    between atoms: _381  and  _383
REMARK  160  A    between atoms: _383  and  _384
REMARK  161  A    between atoms: _386  and  _388
REMARK  162  A    between atoms: _388  and  _389
REMARK  163  A    between atoms: _391  and  _393
REMARK  164  A    between atoms: _393  and  _394
REMARK  165  A    between atoms: _393  and  _396
REMARK  166  A    between atoms: _396  and  _397
REMARK  167  A    between atoms: _400  and  _402
REMARK  168  A    between atoms: _402  and  _403
REMARK  169  A    between atoms: _405  and  _407
REMARK  170  A    between atoms: _407  and  _408
REMARK  171  A    between atoms: _410  and  _412
REMARK  172  A    between atoms: _412  and  _413
REMARK  173  A    between atoms: _412  and  _415
REMARK  174  A    between atoms: _415  and  _416
REMARK  175  A    between atoms: _419  and  _421
REMARK  176  A    between atoms: _421  and  _422
REMARK  177  A    between atoms: _421  and  _424
REMARK  178  A    between atoms: _427  and  _429
REMARK  179  A    between atoms: _429  and  _430
REMARK  180  A    between atoms: _429  and  _432
REMARK  181  A    between atoms: _432  and  _433
REMARK  182  A    between atoms: _437  and  _438
REMARK  183  A    between atoms: _443  and  _445
REMARK  184  A    between atoms: _445  and  _446
REMARK  185  A    between atoms: _445  and  _448
REMARK  186  A    between atoms: _448  and  _449
REMARK  187  A    between atoms: _453  and  _454
REMARK  188  A    between atoms: _459  and  _461
REMARK  189  A    between atoms: _461  and  _462
REMARK  190  A    between atoms: _461  and  _464
REMARK  191  A    between atoms: _464  and  _465
REMARK  192  A    between atoms: _468  and  _470
REMARK  193  A    between atoms: _470  and  _471
REMARK  194  A    between atoms: _470  and  _473
REMARK  195  A    between atoms: _473  and  _474
REMARK  196  A    between atoms: _479  and  _481
REMARK  197  A    between atoms: _481  and  _482
REMARK  198  A    between atoms: _481  and  _484
REMARK  199  A    between atoms: _487  and  _489
REMARK  200  A    between atoms: _489  and  _490
REMARK  201  A    between atoms: _489  and  _492
REMARK  202  A    between atoms: _492  and  _493
REMARK  203  A    between atoms: _496  and  _498
REMARK  204  A    between atoms: _498  and  _499
REMARK  205  A    between atoms: _501  and  _503
REMARK  206  A    between atoms: _503  and  _504
REMARK  207  A    between atoms: _503  and  _506
REMARK  208  A    between atoms: _506  and  _507
REMARK  209  A    between atoms: _507  and  _508
REMARK  210  A    between atoms: _508  and  _509
REMARK  211  A    between atoms: _518  and  _520
REMARK  212  A    between atoms: _520  and  _521
REMARK  213  A    between atoms: _520  and  _523
REMARK  214  A    between atoms: _523  and  _524
REMARK                            x       y       z     vdW  Elec       q    Type
REMARK                         _______ _______ _______ _____ _____    ______ ____
ROOT
ATOM      1  O   HOH     1       7.086  -5.776  19.745  0.00  0.00    +0.000 OA
ENDROOT
TORSDOF 0
REMARK  Name = ../refined-set-2016/1t7j/1t7j_pocket.pdb
REMARK  214 active torsions:
REMARK  status: ('A' for Active; 'I' for Inactive)
REMARK    1  A    between atoms: _1  and  _3
REMARK    2  A    between atoms: _3  and  _4
REMARK    3  A    between atoms: _3  and  _6
REMARK    4  A    between atoms: _6  and  _7
REMARK    5  A    between atoms: _7  and  _8
REMARK    6  A    between atoms: _8  and  _9
REMARK    7  A    between atoms: _18  and  _20
REMARK    8  A    between atoms: _20  and  _21
REMARK    9  A    between atoms: _20  and  _23
REMARK   10  A    between atoms: _23  and  _24
REMARK   11  A    between atoms: _27  and  _29
REMARK   12  A    between atoms: _29  and  _30
REMARK   13  A    between atoms: _29  and  _32
REMARK   14  A    between atoms: _32  and  _33
REMARK   15  A    between atoms: _36  and  _38
REMARK   16  A    between atoms: _38  and  _39
REMARK   17  A    between atoms: _38  and  _41
REMARK   18  A    between atoms: _41  and  _42
REMARK   19  A    between atoms: _45  and  _47
REMARK   20  A    between atoms: _47  and  _48
REMARK   21  A    between atoms: _47  and  _50
REMARK   22  A    between atoms: _50  and  _51
REMARK   23  A    between atoms: _54  and  _56
REMARK   24  A    between atoms: _56  and  _57
REMARK   25  A    between atoms: _59  and  _61
REMARK   26  A    between atoms: _61  and  _62
REMARK   27  A    between atoms: _65  and  _67
REMARK   28  A    between atoms: _67  and  _68
REMARK   29  A    between atoms: _67  and  _70
REMARK   30  A    between atoms: _70  and  _71
REMARK   31  A    between atoms: _74  and  _76
REMARK   32  A    between atoms: _76  and  _77
REMARK   33  A    between atoms: _76  and  _79
REMARK   34  A    between atoms: _79  and  _80
REMARK   35  A    between atoms: _83  and  _85
REMARK   36  A    between atoms: _85  and  _86
REMARK   37  A    between atoms: _85  and  _88
REMARK   38  A    between atoms: _88  and  _89
REMARK   39  A    between atoms: _92  and  _94
REMARK   40  A    between atoms: _94  and  _95
REMARK   41  A    between atoms: _94  and  _97
REMARK   42  A    between atoms: _100  and  _102
REMARK   43  A    between atoms: _102  and  _103
REMARK   44  A    between atoms: _102  and  _105
REMARK   45  A    between atoms: _105  and  _106
REMARK   46  A    between atoms: _109  and  _111
REMARK   47  A    between atoms: _111  and  _112
REMARK   48  A    between atoms: _114  and  _116
REMARK   49  A    between atoms: _116  and  _117
REMARK   50  A    between atoms: _119  and  _121
REMARK   51  A    between atoms: _121  and  _122
REMARK   52  A    between atoms: _121  and  _124
REMARK   53  A    between atoms: _124  and  _125
REMARK   54  A    between atoms: _128  and  _130
REMARK   55  A    between atoms: _130  and  _131
REMARK   56  A    between atoms: _133  and  _135
REMARK   57  A    between atoms: _135  and  _136
REMARK   58  A    between atoms: _138  and  _140
REMARK   59  A    between atoms: _140  and  _141
REMARK   60  A    between atoms: _140  and  _143
REMARK   61  A    between atoms: _143  and  _144
REMARK   62  A    between atoms: _147  and  _149
REMARK   63  A    between atoms: _149  and  _150
REMARK   64  A    between atoms: _149  and  _152
REMARK   65  A    between atoms: _152  and  _153
REMARK   66  A    between atoms: _156  and  _158
REMARK   67  A    between atoms: _158  and  _159
REMARK   68  A    between atoms: _158  and  _161
REMARK   69  A    between atoms: _161  and  _162
REMARK   70  A    between atoms: _166  and  _167
REMARK   71  A    between atoms: _172  and  _174
REMARK   72  A    between atoms: _174  and  _175
REMARK   73  A    between atoms: _174  and  _177
REMARK   74  A    between atoms: _177  and  _178
REMARK   75  A    between atoms: _181  and  _183
REMARK   76  A    between atoms: _183  and  _184
REMARK   77  A    between atoms: _183  and  _186
REMARK   78  A    between atoms: _186  and  _187
REMARK   79  A    between atoms: _192  and  _194
REMARK   80  A    between atoms: _194  and  _195
REMARK   81  A    between atoms: _194  and  _197
REMARK   82  A    between atoms: _200  and  _202
REMARK   83  A    between atoms: _202  and  _203
REMARK   84  A    between atoms: _202  and  _205
REMARK   85  A    between atoms: _205  and  _206
REMARK   86  A    between atoms: _209  and  _211
REMARK   87  A    between atoms: _211  and  _212
REMARK   88  A    between atoms: _214  and  _216
REMARK   89  A    between atoms: _216  and  _217
REMARK   90  A    between atoms: _216  and  _219
REMARK   91  A    between atoms: _219  and  _220
REMARK   92  A    between atoms: _220  and  _221
REMARK   93  A    between atoms: _221  and  _222
REMARK   94  A    between atoms: _231  and  _233
REMARK   95  A    between atoms: _233  and  _234
REMARK   96  A    between atoms: _233  and  _236
REMARK   97  A    between atoms: _236  and  _237
REMARK   98  A    between atoms: _242  and  _244
REMARK   99  A    between atoms: _244  and  _245
REMARK  100  A    between atoms: _244  and  _247
REMARK  101  A    between atoms: _247  and  _248
REMARK  102  A    between atoms: _248  and  _249
REMARK  103  A    between atoms: _249  and  _250
REMARK  104  A    between atoms: _259  and  _261
REMARK  105  A    between atoms: _261  and  _262
REMARK  106  A    between atoms: _261  and  _264
REMARK  107  A    between atoms: _264  and  _265
REMARK  108  A    between atoms: _268  and  _270
REMARK  109  A    between atoms: _270  and  _271
REMARK  110  A    between atoms: _270  and  _273
REMARK  111  A    between atoms: _273  and  _274
REMARK  112  A    between atoms: _277  and  _279
REMARK  113  A    between atoms: _279  and  _280
REMARK  114  A    between atoms: _279  and  _282
REMARK  115  A    between atoms: _282  and  _283
REMARK  116  A    between atoms: _286  and  _288
REMARK  117  A    between atoms: _288  and  _289
REMARK  118  A    between atoms: _288  and  _291
REMARK  119  A    between atoms: _291  and  _292
REMARK  120  A    between atoms: _295  and  _297
REMARK  121  A    between atoms: _297  and  _298
REMARK  122  A    between atoms: _300  and  _302
REMARK  123  A    between atoms: _302  and  _303
REMARK  124  A    between atoms: _306  and  _308
REMARK  125  A    between atoms: _308  and  _309
REMARK  126  A    between atoms: _308  and  _311
REMARK  127  A    between atoms: _311  and  _312
REMARK  128  A    between atoms: _315  and  _317
REMARK  129  A    between atoms: _317  and  _318
REMARK  130  A    between atoms: _317  and  _320
REMARK  131  A    between atoms: _320  and  _321
REMARK  132  A    between atoms: _324  and  _326
REMARK  133  A    between atoms: _326  and  _327
REMARK  134  A    between atoms: _326  and  _329
REMARK  135  A    between atoms: _329  and  _330
REMARK  136  A    between atoms: _333  and  _335
REMARK  137  A    between atoms: _335  and  _336
REMARK  138  A    between atoms: _335  and  _338
REMARK  139  A    between atoms: _341  and  _343
REMARK  140  A    between atoms: _343  and  _344
REMARK  141  A    between atoms: _343  and  _346
REMARK  142  A    between atoms: _346  and  _347
REMARK  143  A    between atoms: _350  and  _352
REMARK  144  A    between atoms: _352  and  _353
REMARK  145  A    between atoms: _352  and  _355
REMARK  146  A    between atoms: _355  and  _356
REMARK  147  A    between atoms: _356  and  _357
REMARK  148  A    between atoms: _357  and  _358
REMARK  149  A    between atoms: _358  and  _359
REMARK  150  A    between atoms: _363  and  _365
REMARK  151  A    between atoms: _365  and  _366
REMARK  152  A    between atoms: _365  and  _368
REMARK  153  A    between atoms: _368  and  _369
REMARK  154  A    between atoms: _369  and  _370
REMARK  155  A    between atoms: _372  and  _374
REMARK  156  A    between atoms: _374  and  _375
REMARK  157  A    between atoms: _374  and  _377
REMARK  158  A    between atoms: _377  and  _378
REMARK  159  A    between atoms: _381  and  _383
REMARK  160  A    between atoms: _383  and  _384
REMARK  161  A    between atoms: _386  and  _388
REMARK  162  A    between atoms: _388  and  _389
REMARK  163  A    between atoms: _391  and  _393
REMARK  164  A    between atoms: _393  and  _394
REMARK  165  A    between atoms: _393  and  _396
REMARK  166  A    between atoms: _396  and  _397
REMARK  167  A    between atoms: _400  and  _402
REMARK  168  A    between atoms: _402  and  _403
REMARK  169  A    between atoms: _405  and  _407
REMARK  170  A    between atoms: _407  and  _408
REMARK  171  A    between atoms: _410  and  _412
REMARK  172  A    between atoms: _412  and  _413
REMARK  173  A    between atoms: _412  and  _415
REMARK  174  A    between atoms: _415  and  _416
REMARK  175  A    between atoms: _419  and  _421
REMARK  176  A    between atoms: _421  and  _422
REMARK  177  A    between atoms: _421  and  _424
REMARK  178  A    between atoms: _427  and  _429
REMARK  179  A    between atoms: _429  and  _430
REMARK  180  A    between atoms: _429  and  _432
REMARK  181  A    between atoms: _432  and  _433
REMARK  182  A    between atoms: _437  and  _438
REMARK  183  A    between atoms: _443  and  _445
REMARK  184  A    between atoms: _445  and  _446
REMARK  185  A    between atoms: _445  and  _448
REMARK  186  A    between atoms: _448  and  _449
REMARK  187  A    between atoms: _453  and  _454
REMARK  188  A    between atoms: _459  and  _461
REMARK  189  A    between atoms: _461  and  _462
REMARK  190  A    between atoms: _461  and  _464
REMARK  191  A    between atoms: _464  and  _465
REMARK  192  A    between atoms: _468  and  _470
REMARK  193  A    between atoms: _470  and  _471
REMARK  194  A    between atoms: _470  and  _473
REMARK  195  A    between atoms: _473  and  _474
REMARK  196  A    between atoms: _479  and  _481
REMARK  197  A    between atoms: _481  and  _482
REMARK  198  A    between atoms: _481  and  _484
REMARK  199  A    between atoms: _487  and  _489
REMARK  200  A    between atoms: _489  and  _490
REMARK  201  A    between atoms: _489  and  _492
REMARK  202  A    between atoms: _492  and  _493
REMARK  203  A    between atoms: _496  and  _498
REMARK  204  A    between atoms: _498  and  _499
REMARK  205  A    between atoms: _501  and  _503
REMARK  206  A    between atoms: _503  and  _504
REMARK  207  A    between atoms: _503  and  _506
REMARK  208  A    between atoms: _506  and  _507
REMARK  209  A    between atoms: _507  and  _508
REMARK  210  A    between atoms: _508  and  _509
REMARK  211  A    between atoms: _518  and  _520
REMARK  212  A    between atoms: _520  and  _521
REMARK  213  A    between atoms: _520  and  _523
REMARK  214  A    between atoms: _523  and  _524
REMARK                            x       y       z     vdW  Elec       q    Type
REMARK                         _______ _______ _______ _____ _____    ______ ____
ROOT
ATOM      1  O   HOH     1       5.144  -5.283  21.344  0.00  0.00    +0.000 OA
ENDROOT
TORSDOF 0
REMARK  Name = ../refined-set-2016/1t7j/1t7j_pocket.pdb
REMARK  214 active torsions:
REMARK  status: ('A' for Active; 'I' for Inactive)
REMARK    1  A    between atoms: _1  and  _3
REMARK    2  A    between atoms: _3  and  _4
REMARK    3  A    between atoms: _3  and  _6
REMARK    4  A    between atoms: _6  and  _7
REMARK    5  A    between atoms: _7  and  _8
REMARK    6  A    between atoms: _8  and  _9
REMARK    7  A    between atoms: _18  and  _20
REMARK    8  A    between atoms: _20  and  _21
REMARK    9  A    between atoms: _20  and  _23
REMARK   10  A    between atoms: _23  and  _24
REMARK   11  A    between atoms: _27  and  _29
REMARK   12  A    between atoms: _29  and  _30
REMARK   13  A    between atoms: _29  and  _32
REMARK   14  A    between atoms: _32  and  _33
REMARK   15  A    between atoms: _36  and  _38
REMARK   16  A    between atoms: _38  and  _39
REMARK   17  A    between atoms: _38  and  _41
REMARK   18  A    between atoms: _41  and  _42
REMARK   19  A    between atoms: _45  and  _47
REMARK   20  A    between atoms: _47  and  _48
REMARK   21  A    between atoms: _47  and  _50
REMARK   22  A    between atoms: _50  and  _51
REMARK   23  A    between atoms: _54  and  _56
REMARK   24  A    between atoms: _56  and  _57
REMARK   25  A    between atoms: _59  and  _61
REMARK   26  A    between atoms: _61  and  _62
REMARK   27  A    between atoms: _65  and  _67
REMARK   28  A    between atoms: _67  and  _68
REMARK   29  A    between atoms: _67  and  _70
REMARK   30  A    between atoms: _70  and  _71
REMARK   31  A    between atoms: _74  and  _76
REMARK   32  A    between atoms: _76  and  _77
REMARK   33  A    between atoms: _76  and  _79
REMARK   34  A    between atoms: _79  and  _80
REMARK   35  A    between atoms: _83  and  _85
REMARK   36  A    between atoms: _85  and  _86
REMARK   37  A    between atoms: _85  and  _88
REMARK   38  A    between atoms: _88  and  _89
REMARK   39  A    between atoms: _92  and  _94
REMARK   40  A    between atoms: _94  and  _95
REMARK   41  A    between atoms: _94  and  _97
REMARK   42  A    between atoms: _100  and  _102
REMARK   43  A    between atoms: _102  and  _103
REMARK   44  A    between atoms: _102  and  _105
REMARK   45  A    between atoms: _105  and  _106
REMARK   46  A    between atoms: _109  and  _111
REMARK   47  A    between atoms: _111  and  _112
REMARK   48  A    between atoms: _114  and  _116
REMARK   49  A    between atoms: _116  and  _117
REMARK   50  A    between atoms: _119  and  _121
REMARK   51  A    between atoms: _121  and  _122
REMARK   52  A    between atoms: _121  and  _124
REMARK   53  A    between atoms: _124  and  _125
REMARK   54  A    between atoms: _128  and  _130
REMARK   55  A    between atoms: _130  and  _131
REMARK   56  A    between atoms: _133  and  _135
REMARK   57  A    between atoms: _135  and  _136
REMARK   58  A    between atoms: _138  and  _140
REMARK   59  A    between atoms: _140  and  _141
REMARK   60  A    between atoms: _140  and  _143
REMARK   61  A    between atoms: _143  and  _144
REMARK   62  A    between atoms: _147  and  _149
REMARK   63  A    between atoms: _149  and  _150
REMARK   64  A    between atoms: _149  and  _152
REMARK   65  A    between atoms: _152  and  _153
REMARK   66  A    between atoms: _156  and  _158
REMARK   67  A    between atoms: _158  and  _159
REMARK   68  A    between atoms: _158  and  _161
REMARK   69  A    between atoms: _161  and  _162
REMARK   70  A    between atoms: _166  and  _167
REMARK   71  A    between atoms: _172  and  _174
REMARK   72  A    between atoms: _174  and  _175
REMARK   73  A    between atoms: _174  and  _177
REMARK   74  A    between atoms: _177  and  _178
REMARK   75  A    between atoms: _181  and  _183
REMARK   76  A    between atoms: _183  and  _184
REMARK   77  A    between atoms: _183  and  _186
REMARK   78  A    between atoms: _186  and  _187
REMARK   79  A    between atoms: _192  and  _194
REMARK   80  A    between atoms: _194  and  _195
REMARK   81  A    between atoms: _194  and  _197
REMARK   82  A    between atoms: _200  and  _202
REMARK   83  A    between atoms: _202  and  _203
REMARK   84  A    between atoms: _202  and  _205
REMARK   85  A    between atoms: _205  and  _206
REMARK   86  A    between atoms: _209  and  _211
REMARK   87  A    between atoms: _211  and  _212
REMARK   88  A    between atoms: _214  and  _216
REMARK   89  A    between atoms: _216  and  _217
REMARK   90  A    between atoms: _216  and  _219
REMARK   91  A    between atoms: _219  and  _220
REMARK   92  A    between atoms: _220  and  _221
REMARK   93  A    between atoms: _221  and  _222
REMARK   94  A    between atoms: _231  and  _233
REMARK   95  A    between atoms: _233  and  _234
REMARK   96  A    between atoms: _233  and  _236
REMARK   97  A    between atoms: _236  and  _237
REMARK   98  A    between atoms: _242  and  _244
REMARK   99  A    between atoms: _244  and  _245
REMARK  100  A    between atoms: _244  and  _247
REMARK  101  A    between atoms: _247  and  _248
REMARK  102  A    between atoms: _248  and  _249
REMARK  103  A    between atoms: _249  and  _250
REMARK  104  A    between atoms: _259  and  _261
REMARK  105  A    between atoms: _261  and  _262
REMARK  106  A    between atoms: _261  and  _264
REMARK  107  A    between atoms: _264  and  _265
REMARK  108  A    between atoms: _268  and  _270
REMARK  109  A    between atoms: _270  and  _271
REMARK  110  A    between atoms: _270  and  _273
REMARK  111  A    between atoms: _273  and  _274
REMARK  112  A    between atoms: _277  and  _279
REMARK  113  A    between atoms: _279  and  _280
REMARK  114  A    between atoms: _279  and  _282
REMARK  115  A    between atoms: _282  and  _283
REMARK  116  A    between atoms: _286  and  _288
REMARK  117  A    between atoms: _288  and  _289
REMARK  118  A    between atoms: _288  and  _291
REMARK  119  A    between atoms: _291  and  _292
REMARK  120  A    between atoms: _295  and  _297
REMARK  121  A    between atoms: _297  and  _298
REMARK  122  A    between atoms: _300  and  _302
REMARK  123  A    between atoms: _302  and  _303
REMARK  124  A    between atoms: _306  and  _308
REMARK  125  A    between atoms: _308  and  _309
REMARK  126  A    between atoms: _308  and  _311
REMARK  127  A    between atoms: _311  and  _312
REMARK  128  A    between atoms: _315  and  _317
REMARK  129  A    between atoms: _317  and  _318
REMARK  130  A    between atoms: _317  and  _320
REMARK  131  A    between atoms: _320  and  _321
REMARK  132  A    between atoms: _324  and  _326
REMARK  133  A    between atoms: _326  and  _327
REMARK  134  A    between atoms: _326  and  _329
REMARK  135  A    between atoms: _329  and  _330
REMARK  136  A    between atoms: _333  and  _335
REMARK  137  A    between atoms: _335  and  _336
REMARK  138  A    between atoms: _335  and  _338
REMARK  139  A    between atoms: _341  and  _343
REMARK  140  A    between atoms: _343  and  _344
REMARK  141  A    between atoms: _343  and  _346
REMARK  142  A    between atoms: _346  and  _347
REMARK  143  A    between atoms: _350  and  _352
REMARK  144  A    between atoms: _352  and  _353
REMARK  145  A    between atoms: _352  and  _355
REMARK  146  A    between atoms: _355  and  _356
REMARK  147  A    between atoms: _356  and  _357
REMARK  148  A    between atoms: _357  and  _358
REMARK  149  A    between atoms: _358  and  _359
REMARK  150  A    between atoms: _363  and  _365
REMARK  151  A    between atoms: _365  and  _366
REMARK  152  A    between atoms: _365  and  _368
REMARK  153  A    between atoms: _368  and  _369
REMARK  154  A    between atoms: _369  and  _370
REMARK  155  A    between atoms: _372  and  _374
REMARK  156  A    between atoms: _374  and  _375
REMARK  157  A    between atoms: _374  and  _377
REMARK  158  A    between atoms: _377  and  _378
REMARK  159  A    between atoms: _381  and  _383
REMARK  160  A    between atoms: _383  and  _384
REMARK  161  A    between atoms: _386  and  _388
REMARK  162  A    between atoms: _388  and  _389
REMARK  163  A    between atoms: _391  and  _393
REMARK  164  A    between atoms: _393  and  _394
REMARK  165  A    between atoms: _393  and  _396
REMARK  166  A    between atoms: _396  and  _397
REMARK  167  A    between atoms: _400  and  _402
REMARK  168  A    between atoms: _402  and  _403
REMARK  169  A    between atoms: _405  and  _407
REMARK  170  A    between atoms: _407  and  _408
REMARK  171  A    between atoms: _410  and  _412
REMARK  172  A    between atoms: _412  and  _413
REMARK  173  A    between atoms: _412  and  _415
REMARK  174  A    between atoms: _415  and  _416
REMARK  175  A    between atoms: _419  and  _421
REMARK  176  A    between atoms: _421  and  _422
REMARK  177  A    between atoms: _421  and  _424
REMARK  178  A    between atoms: _427  and  _429
REMARK  179  A    between atoms: _429  and  _430
REMARK  180  A    between atoms: _429  and  _432
REMARK  181  A    between atoms: _432  and  _433
REMARK  182  A    between atoms: _437  and  _438
REMARK  183  A    between atoms: _443  and  _445
REMARK  184  A    between atoms: _445  and  _446
REMARK  185  A    between atoms: _445  and  _448
REMARK  186  A    between atoms: _448  and  _449
REMARK  187  A    between atoms: _453  and  _454
REMARK  188  A    between atoms: _459  and  _461
REMARK  189  A    between atoms: _461  and  _462
REMARK  190  A    between atoms: _461  and  _464
REMARK  191  A    between atoms: _464  and  _465
REMARK  192  A    between atoms: _468  and  _470
REMARK  193  A    between atoms: _470  and  _471
REMARK  194  A    between atoms: _470  and  _473
REMARK  195  A    between atoms: _473  and  _474
REMARK  196  A    between atoms: _479  and  _481
REMARK  197  A    between atoms: _481  and  _482
REMARK  198  A    between atoms: _481  and  _484
REMARK  199  A    between atoms: _487  and  _489
REMARK  200  A    between atoms: _489  and  _490
REMARK  201  A    between atoms: _489  and  _492
REMARK  202  A    between atoms: _492  and  _493
REMARK  203  A    between atoms: _496  and  _498
REMARK  204  A    between atoms: _498  and  _499
REMARK  205  A    between atoms: _501  and  _503
REMARK  206  A    between atoms: _503  and  _504
REMARK  207  A    between atoms: _503  and  _506
REMARK  208  A    between atoms: _506  and  _507
REMARK  209  A    between atoms: _507  and  _508
REMARK  210  A    between atoms: _508  and  _509
REMARK  211  A    between atoms: _518  and  _520
REMARK  212  A    between atoms: _520  and  _521
REMARK  213  A    between atoms: _520  and  _523
REMARK  214  A    between atoms: _523  and  _524
REMARK                            x       y       z     vdW  Elec       q    Type
REMARK                         _______ _______ _______ _____ _____    ______ ____
ROOT
ATOM      1  O   HOH     1      11.517   6.395   5.044  0.00  0.00    +0.000 OA
ENDROOT
TORSDOF 0
REMARK  Name = ../refined-set-2016/1t7j/1t7j_pocket.pdb
REMARK  214 active torsions:
REMARK  status: ('A' for Active; 'I' for Inactive)
REMARK    1  A    between atoms: _1  and  _3
REMARK    2  A    between atoms: _3  and  _4
REMARK    3  A    between atoms: _3  and  _6
REMARK    4  A    between atoms: _6  and  _7
REMARK    5  A    between atoms: _7  and  _8
REMARK    6  A    between atoms: _8  and  _9
REMARK    7  A    between atoms: _18  and  _20
REMARK    8  A    between atoms: _20  and  _21
REMARK    9  A    between atoms: _20  and  _23
REMARK   10  A    between atoms: _23  and  _24
REMARK   11  A    between atoms: _27  and  _29
REMARK   12  A    between atoms: _29  and  _30
REMARK   13  A    between atoms: _29  and  _32
REMARK   14  A    between atoms: _32  and  _33
REMARK   15  A    between atoms: _36  and  _38
REMARK   16  A    between atoms: _38  and  _39
REMARK   17  A    between atoms: _38  and  _41
REMARK   18  A    between atoms: _41  and  _42
REMARK   19  A    between atoms: _45  and  _47
REMARK   20  A    between atoms: _47  and  _48
REMARK   21  A    between atoms: _47  and  _50
REMARK   22  A    between atoms: _50  and  _51
REMARK   23  A    between atoms: _54  and  _56
REMARK   24  A    between atoms: _56  and  _57
REMARK   25  A    between atoms: _59  and  _61
REMARK   26  A    between atoms: _61  and  _62
REMARK   27  A    between atoms: _65  and  _67
REMARK   28  A    between atoms: _67  and  _68
REMARK   29  A    between atoms: _67  and  _70
REMARK   30  A    between atoms: _70  and  _71
REMARK   31  A    between atoms: _74  and  _76
REMARK   32  A    between atoms: _76  and  _77
REMARK   33  A    between atoms: _76  and  _79
REMARK   34  A    between atoms: _79  and  _80
REMARK   35  A    between atoms: _83  and  _85
REMARK   36  A    between atoms: _85  and  _86
REMARK   37  A    between atoms: _85  and  _88
REMARK   38  A    between atoms: _88  and  _89
REMARK   39  A    between atoms: _92  and  _94
REMARK   40  A    between atoms: _94  and  _95
REMARK   41  A    between atoms: _94  and  _97
REMARK   42  A    between atoms: _100  and  _102
REMARK   43  A    between atoms: _102  and  _103
REMARK   44  A    between atoms: _102  and  _105
REMARK   45  A    between atoms: _105  and  _106
REMARK   46  A    between atoms: _109  and  _111
REMARK   47  A    between atoms: _111  and  _112
REMARK   48  A    between atoms: _114  and  _116
REMARK   49  A    between atoms: _116  and  _117
REMARK   50  A    between atoms: _119  and  _121
REMARK   51  A    between atoms: _121  and  _122
REMARK   52  A    between atoms: _121  and  _124
REMARK   53  A    between atoms: _124  and  _125
REMARK   54  A    between atoms: _128  and  _130
REMARK   55  A    between atoms: _130  and  _131
REMARK   56  A    between atoms: _133  and  _135
REMARK   57  A    between atoms: _135  and  _136
REMARK   58  A    between atoms: _138  and  _140
REMARK   59  A    between atoms: _140  and  _141
REMARK   60  A    between atoms: _140  and  _143
REMARK   61  A    between atoms: _143  and  _144
REMARK   62  A    between atoms: _147  and  _149
REMARK   63  A    between atoms: _149  and  _150
REMARK   64  A    between atoms: _149  and  _152
REMARK   65  A    between atoms: _152  and  _153
REMARK   66  A    between atoms: _156  and  _158
REMARK   67  A    between atoms: _158  and  _159
REMARK   68  A    between atoms: _158  and  _161
REMARK   69  A    between atoms: _161  and  _162
REMARK   70  A    between atoms: _166  and  _167
REMARK   71  A    between atoms: _172  and  _174
REMARK   72  A    between atoms: _174  and  _175
REMARK   73  A    between atoms: _174  and  _177
REMARK   74  A    between atoms: _177  and  _178
REMARK   75  A    between atoms: _181  and  _183
REMARK   76  A    between atoms: _183  and  _184
REMARK   77  A    between atoms: _183  and  _186
REMARK   78  A    between atoms: _186  and  _187
REMARK   79  A    between atoms: _192  and  _194
REMARK   80  A    between atoms: _194  and  _195
REMARK   81  A    between atoms: _194  and  _197
REMARK   82  A    between atoms: _200  and  _202
REMARK   83  A    between atoms: _202  and  _203
REMARK   84  A    between atoms: _202  and  _205
REMARK   85  A    between atoms: _205  and  _206
REMARK   86  A    between atoms: _209  and  _211
REMARK   87  A    between atoms: _211  and  _212
REMARK   88  A    between atoms: _214  and  _216
REMARK   89  A    between atoms: _216  and  _217
REMARK   90  A    between atoms: _216  and  _219
REMARK   91  A    between atoms: _219  and  _220
REMARK   92  A    between atoms: _220  and  _221
REMARK   93  A    between atoms: _221  and  _222
REMARK   94  A    between atoms: _231  and  _233
REMARK   95  A    between atoms: _233  and  _234
REMARK   96  A    between atoms: _233  and  _236
REMARK   97  A    between atoms: _236  and  _237
REMARK   98  A    between atoms: _242  and  _244
REMARK   99  A    between atoms: _244  and  _245
REMARK  100  A    between atoms: _244  and  _247
REMARK  101  A    between atoms: _247  and  _248
REMARK  102  A    between atoms: _248  and  _249
REMARK  103  A    between atoms: _249  and  _250
REMARK  104  A    between atoms: _259  and  _261
REMARK  105  A    between atoms: _261  and  _262
REMARK  106  A    between atoms: _261  and  _264
REMARK  107  A    between atoms: _264  and  _265
REMARK  108  A    between atoms: _268  and  _270
REMARK  109  A    between atoms: _270  and  _271
REMARK  110  A    between atoms: _270  and  _273
REMARK  111  A    between atoms: _273  and  _274
REMARK  112  A    between atoms: _277  and  _279
REMARK  113  A    between atoms: _279  and  _280
REMARK  114  A    between atoms: _279  and  _282
REMARK  115  A    between atoms: _282  and  _283
REMARK  116  A    between atoms: _286  and  _288
REMARK  117  A    between atoms: _288  and  _289
REMARK  118  A    between atoms: _288  and  _291
REMARK  119  A    between atoms: _291  and  _292
REMARK  120  A    between atoms: _295  and  _297
REMARK  121  A    between atoms: _297  and  _298
REMARK  122  A    between atoms: _300  and  _302
REMARK  123  A    between atoms: _302  and  _303
REMARK  124  A    between atoms: _306  and  _308
REMARK  125  A    between atoms: _308  and  _309
REMARK  126  A    between atoms: _308  and  _311
REMARK  127  A    between atoms: _311  and  _312
REMARK  128  A    between atoms: _315  and  _317
REMARK  129  A    between atoms: _317  and  _318
REMARK  130  A    between atoms: _317  and  _320
REMARK  131  A    between atoms: _320  and  _321
REMARK  132  A    between atoms: _324  and  _326
REMARK  133  A    between atoms: _326  and  _327
REMARK  134  A    between atoms: _326  and  _329
REMARK  135  A    between atoms: _329  and  _330
REMARK  136  A    between atoms: _333  and  _335
REMARK  137  A    between atoms: _335  and  _336
REMARK  138  A    between atoms: _335  and  _338
REMARK  139  A    between atoms: _341  and  _343
REMARK  140  A    between atoms: _343  and  _344
REMARK  141  A    between atoms: _343  and  _346
REMARK  142  A    between atoms: _346  and  _347
REMARK  143  A    between atoms: _350  and  _352
REMARK  144  A    between atoms: _352  and  _353
REMARK  145  A    between atoms: _352  and  _355
REMARK  146  A    between atoms: _355  and  _356
REMARK  147  A    between atoms: _356  and  _357
REMARK  148  A    between atoms: _357  and  _358
REMARK  149  A    between atoms: _358  and  _359
REMARK  150  A    between atoms: _363  and  _365
REMARK  151  A    between atoms: _365  and  _366
REMARK  152  A    between atoms: _365  and  _368
REMARK  153  A    between atoms: _368  and  _369
REMARK  154  A    between atoms: _369  and  _370
REMARK  155  A    between atoms: _372  and  _374
REMARK  156  A    between atoms: _374  and  _375
REMARK  157  A    between atoms: _374  and  _377
REMARK  158  A    between atoms: _377  and  _378
REMARK  159  A    between atoms: _381  and  _383
REMARK  160  A    between atoms: _383  and  _384
REMARK  161  A    between atoms: _386  and  _388
REMARK  162  A    between atoms: _388  and  _389
REMARK  163  A    between atoms: _391  and  _393
REMARK  164  A    between atoms: _393  and  _394
REMARK  165  A    between atoms: _393  and  _396
REMARK  166  A    between atoms: _396  and  _397
REMARK  167  A    between atoms: _400  and  _402
REMARK  168  A    between atoms: _402  and  _403
REMARK  169  A    between atoms: _405  and  _407
REMARK  170  A    between atoms: _407  and  _408
REMARK  171  A    between atoms: _410  and  _412
REMARK  172  A    between atoms: _412  and  _413
REMARK  173  A    between atoms: _412  and  _415
REMARK  174  A    between atoms: _415  and  _416
REMARK  175  A    between atoms: _419  and  _421
REMARK  176  A    between atoms: _421  and  _422
REMARK  177  A    between atoms: _421  and  _424
REMARK  178  A    between atoms: _427  and  _429
REMARK  179  A    between atoms: _429  and  _430
REMARK  180  A    between atoms: _429  and  _432
REMARK  181  A    between atoms: _432  and  _433
REMARK  182  A    between atoms: _437  and  _438
REMARK  183  A    between atoms: _443  and  _445
REMARK  184  A    between atoms: _445  and  _446
REMARK  185  A    between atoms: _445  and  _448
REMARK  186  A    between atoms: _448  and  _449
REMARK  187  A    between atoms: _453  and  _454
REMARK  188  A    between atoms: _459  and  _461
REMARK  189  A    between atoms: _461  and  _462
REMARK  190  A    between atoms: _461  and  _464
REMARK  191  A    between atoms: _464  and  _465
REMARK  192  A    between atoms: _468  and  _470
REMARK  193  A    between atoms: _470  and  _471
REMARK  194  A    between atoms: _470  and  _473
REMARK  195  A    between atoms: _473  and  _474
REMARK  196  A    between atoms: _479  and  _481
REMARK  197  A    between atoms: _481  and  _482
REMARK  198  A    between atoms: _481  and  _484
REMARK  199  A    between atoms: _487  and  _489
REMARK  200  A    between atoms: _489  and  _490
REMARK  201  A    between atoms: _489  and  _492
REMARK  202  A    between atoms: _492  and  _493
REMARK  203  A    between atoms: _496  and  _498
REMARK  204  A    between atoms: _498  and  _499
REMARK  205  A    between atoms: _501  and  _503
REMARK  206  A    between atoms: _503  and  _504
REMARK  207  A    between atoms: _503  and  _506
REMARK  208  A    between atoms: _506  and  _507
REMARK  209  A    between atoms: _507  and  _508
REMARK  210  A    between atoms: _508  and  _509
REMARK  211  A    between atoms: _518  and  _520
REMARK  212  A    between atoms: _520  and  _521
REMARK  213  A    between atoms: _520  and  _523
REMARK  214  A    between atoms: _523  and  _524
REMARK                            x       y       z     vdW  Elec       q    Type
REMARK                         _______ _______ _______ _____ _____    ______ ____
ROOT
ATOM      1  O   HOH     1      11.355  -9.236  19.830  0.00  0.00    +0.000 OA
ENDROOT
TORSDOF 0
REMARK  Name = ../refined-set-2016/1t7j/1t7j_pocket.pdb
REMARK  214 active torsions:
REMARK  status: ('A' for Active; 'I' for Inactive)
REMARK    1  A    between atoms: _1  and  _3
REMARK    2  A    between atoms: _3  and  _4
REMARK    3  A    between atoms: _3  and  _6
REMARK    4  A    between atoms: _6  and  _7
REMARK    5  A    between atoms: _7  and  _8
REMARK    6  A    between atoms: _8  and  _9
REMARK    7  A    between atoms: _18  and  _20
REMARK    8  A    between atoms: _20  and  _21
REMARK    9  A    between atoms: _20  and  _23
REMARK   10  A    between atoms: _23  and  _24
REMARK   11  A    between atoms: _27  and  _29
REMARK   12  A    between atoms: _29  and  _30
REMARK   13  A    between atoms: _29  and  _32
REMARK   14  A    between atoms: _32  and  _33
REMARK   15  A    between atoms: _36  and  _38
REMARK   16  A    between atoms: _38  and  _39
REMARK   17  A    between atoms: _38  and  _41
REMARK   18  A    between atoms: _41  and  _42
REMARK   19  A    between atoms: _45  and  _47
REMARK   20  A    between atoms: _47  and  _48
REMARK   21  A    between atoms: _47  and  _50
REMARK   22  A    between atoms: _50  and  _51
REMARK   23  A    between atoms: _54  and  _56
REMARK   24  A    between atoms: _56  and  _57
REMARK   25  A    between atoms: _59  and  _61
REMARK   26  A    between atoms: _61  and  _62
REMARK   27  A    between atoms: _65  and  _67
REMARK   28  A    between atoms: _67  and  _68
REMARK   29  A    between atoms: _67  and  _70
REMARK   30  A    between atoms: _70  and  _71
REMARK   31  A    between atoms: _74  and  _76
REMARK   32  A    between atoms: _76  and  _77
REMARK   33  A    between atoms: _76  and  _79
REMARK   34  A    between atoms: _79  and  _80
REMARK   35  A    between atoms: _83  and  _85
REMARK   36  A    between atoms: _85  and  _86
REMARK   37  A    between atoms: _85  and  _88
REMARK   38  A    between atoms: _88  and  _89
REMARK   39  A    between atoms: _92  and  _94
REMARK   40  A    between atoms: _94  and  _95
REMARK   41  A    between atoms: _94  and  _97
REMARK   42  A    between atoms: _100  and  _102
REMARK   43  A    between atoms: _102  and  _103
REMARK   44  A    between atoms: _102  and  _105
REMARK   45  A    between atoms: _105  and  _106
REMARK   46  A    between atoms: _109  and  _111
REMARK   47  A    between atoms: _111  and  _112
REMARK   48  A    between atoms: _114  and  _116
REMARK   49  A    between atoms: _116  and  _117
REMARK   50  A    between atoms: _119  and  _121
REMARK   51  A    between atoms: _121  and  _122
REMARK   52  A    between atoms: _121  and  _124
REMARK   53  A    between atoms: _124  and  _125
REMARK   54  A    between atoms: _128  and  _130
REMARK   55  A    between atoms: _130  and  _131
REMARK   56  A    between atoms: _133  and  _135
REMARK   57  A    between atoms: _135  and  _136
REMARK   58  A    between atoms: _138  and  _140
REMARK   59  A    between atoms: _140  and  _141
REMARK   60  A    between atoms: _140  and  _143
REMARK   61  A    between atoms: _143  and  _144
REMARK   62  A    between atoms: _147  and  _149
REMARK   63  A    between atoms: _149  and  _150
REMARK   64  A    between atoms: _149  and  _152
REMARK   65  A    between atoms: _152  and  _153
REMARK   66  A    between atoms: _156  and  _158
REMARK   67  A    between atoms: _158  and  _159
REMARK   68  A    between atoms: _158  and  _161
REMARK   69  A    between atoms: _161  and  _162
REMARK   70  A    between atoms: _166  and  _167
REMARK   71  A    between atoms: _172  and  _174
REMARK   72  A    between atoms: _174  and  _175
REMARK   73  A    between atoms: _174  and  _177
REMARK   74  A    between atoms: _177  and  _178
REMARK   75  A    between atoms: _181  and  _183
REMARK   76  A    between atoms: _183  and  _184
REMARK   77  A    between atoms: _183  and  _186
REMARK   78  A    between atoms: _186  and  _187
REMARK   79  A    between atoms: _192  and  _194
REMARK   80  A    between atoms: _194  and  _195
REMARK   81  A    between atoms: _194  and  _197
REMARK   82  A    between atoms: _200  and  _202
REMARK   83  A    between atoms: _202  and  _203
REMARK   84  A    between atoms: _202  and  _205
REMARK   85  A    between atoms: _205  and  _206
REMARK   86  A    between atoms: _209  and  _211
REMARK   87  A    between atoms: _211  and  _212
REMARK   88  A    between atoms: _214  and  _216
REMARK   89  A    between atoms: _216  and  _217
REMARK   90  A    between atoms: _216  and  _219
REMARK   91  A    between atoms: _219  and  _220
REMARK   92  A    between atoms: _220  and  _221
REMARK   93  A    between atoms: _221  and  _222
REMARK   94  A    between atoms: _231  and  _233
REMARK   95  A    between atoms: _233  and  _234
REMARK   96  A    between atoms: _233  and  _236
REMARK   97  A    between atoms: _236  and  _237
REMARK   98  A    between atoms: _242  and  _244
REMARK   99  A    between atoms: _244  and  _245
REMARK  100  A    between atoms: _244  and  _247
REMARK  101  A    between atoms: _247  and  _248
REMARK  102  A    between atoms: _248  and  _249
REMARK  103  A    between atoms: _249  and  _250
REMARK  104  A    between atoms: _259  and  _261
REMARK  105  A    between atoms: _261  and  _262
REMARK  106  A    between atoms: _261  and  _264
REMARK  107  A    between atoms: _264  and  _265
REMARK  108  A    between atoms: _268  and  _270
REMARK  109  A    between atoms: _270  and  _271
REMARK  110  A    between atoms: _270  and  _273
REMARK  111  A    between atoms: _273  and  _274
REMARK  112  A    between atoms: _277  and  _279
REMARK  113  A    between atoms: _279  and  _280
REMARK  114  A    between atoms: _279  and  _282
REMARK  115  A    between atoms: _282  and  _283
REMARK  116  A    between atoms: _286  and  _288
REMARK  117  A    between atoms: _288  and  _289
REMARK  118  A    between atoms: _288  and  _291
REMARK  119  A    between atoms: _291  and  _292
REMARK  120  A    between atoms: _295  and  _297
REMARK  121  A    between atoms: _297  and  _298
REMARK  122  A    between atoms: _300  and  _302
REMARK  123  A    between atoms: _302  and  _303
REMARK  124  A    between atoms: _306  and  _308
REMARK  125  A    between atoms: _308  and  _309
REMARK  126  A    between atoms: _308  and  _311
REMARK  127  A    between atoms: _311  and  _312
REMARK  128  A    between atoms: _315  and  _317
REMARK  129  A    between atoms: _317  and  _318
REMARK  130  A    between atoms: _317  and  _320
REMARK  131  A    between atoms: _320  and  _321
REMARK  132  A    between atoms: _324  and  _326
REMARK  133  A    between atoms: _326  and  _327
REMARK  134  A    between atoms: _326  and  _329
REMARK  135  A    between atoms: _329  and  _330
REMARK  136  A    between atoms: _333  and  _335
REMARK  137  A    between atoms: _335  and  _336
REMARK  138  A    between atoms: _335  and  _338
REMARK  139  A    between atoms: _341  and  _343
REMARK  140  A    between atoms: _343  and  _344
REMARK  141  A    between atoms: _343  and  _346
REMARK  142  A    between atoms: _346  and  _347
REMARK  143  A    between atoms: _350  and  _352
REMARK  144  A    between atoms: _352  and  _353
REMARK  145  A    between atoms: _352  and  _355
REMARK  146  A    between atoms: _355  and  _356
REMARK  147  A    between atoms: _356  and  _357
REMARK  148  A    between atoms: _357  and  _358
REMARK  149  A    between atoms: _358  and  _359
REMARK  150  A    between atoms: _363  and  _365
REMARK  151  A    between atoms: _365  and  _366
REMARK  152  A    between atoms: _365  and  _368
REMARK  153  A    between atoms: _368  and  _369
REMARK  154  A    between atoms: _369  and  _370
REMARK  155  A    between atoms: _372  and  _374
REMARK  156  A    between atoms: _374  and  _375
REMARK  157  A    between atoms: _374  and  _377
REMARK  158  A    between atoms: _377  and  _378
REMARK  159  A    between atoms: _381  and  _383
REMARK  160  A    between atoms: _383  and  _384
REMARK  161  A    between atoms: _386  and  _388
REMARK  162  A    between atoms: _388  and  _389
REMARK  163  A    between atoms: _391  and  _393
REMARK  164  A    between atoms: _393  and  _394
REMARK  165  A    between atoms: _393  and  _396
REMARK  166  A    between atoms: _396  and  _397
REMARK  167  A    between atoms: _400  and  _402
REMARK  168  A    between atoms: _402  and  _403
REMARK  169  A    between atoms: _405  and  _407
REMARK  170  A    between atoms: _407  and  _408
REMARK  171  A    between atoms: _410  and  _412
REMARK  172  A    between atoms: _412  and  _413
REMARK  173  A    between atoms: _412  and  _415
REMARK  174  A    between atoms: _415  and  _416
REMARK  175  A    between atoms: _419  and  _421
REMARK  176  A    between atoms: _421  and  _422
REMARK  177  A    between atoms: _421  and  _424
REMARK  178  A    between atoms: _427  and  _429
REMARK  179  A    between atoms: _429  and  _430
REMARK  180  A    between atoms: _429  and  _432
REMARK  181  A    between atoms: _432  and  _433
REMARK  182  A    between atoms: _437  and  _438
REMARK  183  A    between atoms: _443  and  _445
REMARK  184  A    between atoms: _445  and  _446
REMARK  185  A    between atoms: _445  and  _448
REMARK  186  A    between atoms: _448  and  _449
REMARK  187  A    between atoms: _453  and  _454
REMARK  188  A    between atoms: _459  and  _461
REMARK  189  A    between atoms: _461  and  _462
REMARK  190  A    between atoms: _461  and  _464
REMARK  191  A    between atoms: _464  and  _465
REMARK  192  A    between atoms: _468  and  _470
REMARK  193  A    between atoms: _470  and  _471
REMARK  194  A    between atoms: _470  and  _473
REMARK  195  A    between atoms: _473  and  _474
REMARK  196  A    between atoms: _479  and  _481
REMARK  197  A    between atoms: _481  and  _482
REMARK  198  A    between atoms: _481  and  _484
REMARK  199  A    between atoms: _487  and  _489
REMARK  200  A    between atoms: _489  and  _490
REMARK  201  A    between atoms: _489  and  _492
REMARK  202  A    between atoms: _492  and  _493
REMARK  203  A    between atoms: _496  and  _498
REMARK  204  A    between atoms: _498  and  _499
REMARK  205  A    between atoms: _501  and  _503
REMARK  206  A    between atoms: _503  and  _504
REMARK  207  A    between atoms: _503  and  _506
REMARK  208  A    between atoms: _506  and  _507
REMARK  209  A    between atoms: _507  and  _508
REMARK  210  A    between atoms: _508  and  _509
REMARK  211  A    between atoms: _518  and  _520
REMARK  212  A    between atoms: _520  and  _521
REMARK  213  A    between atoms: _520  and  _523
REMARK  214  A    between atoms: _523  and  _524
REMARK                            x       y       z     vdW  Elec       q    Type
REMARK                         _______ _______ _______ _____ _____    ______ ____
ROOT
ATOM      1  O   HOH     1       0.386  -8.128   8.781  0.00  0.00    +0.000 OA
ENDROOT
TORSDOF 0
