REMARK  Name = ../refined-set-2016/3n86/3n86_pocket.pdb
REMARK  239 active torsions:
REMARK  status: ('A' for Active; 'I' for Inactive)
REMARK    1  A    between atoms: _1  and  _3
REMARK    2  A    between atoms: _3  and  _4
REMARK    3  A    between atoms: _3  and  _6
REMARK    4  A    between atoms: _6  and  _7
REMARK    5  A    between atoms: _12  and  _14
REMARK    6  A    between atoms: _14  and  _15
REMARK    7  A    between atoms: _18  and  _19
REMARK    8  A    between atoms: _24  and  _26
REMARK    9  A    between atoms: _26  and  _27
REMARK   10  A    between atoms: _26  and  _29
REMARK   11  A    between atoms: _29  and  _30
REMARK   12  A    between atoms: _35  and  _37
REMARK   13  A    between atoms: _37  and  _38
REMARK   14  A    between atoms: _37  and  _40
REMARK   15  A    between atoms: _40  and  _41
REMARK   16  A    between atoms: _44  and  _46
REMARK   17  A    between atoms: _46  and  _47
REMARK   18  A    between atoms: _49  and  _51
REMARK   19  A    between atoms: _51  and  _52
REMARK   20  A    between atoms: _51  and  _54
REMARK   21  A    between atoms: _54  and  _55
REMARK   22  A    between atoms: _55  and  _56
REMARK   23  A    between atoms: _56  and  _57
REMARK   24  A    between atoms: _66  and  _68
REMARK   25  A    between atoms: _68  and  _69
REMARK   26  A    between atoms: _68  and  _71
REMARK   27  A    between atoms: _71  and  _72
REMARK   28  A    between atoms: _75  and  _77
REMARK   29  A    between atoms: _77  and  _78
REMARK   30  A    between atoms: _80  and  _82
REMARK   31  A    between atoms: _82  and  _83
REMARK   32  A    between atoms: _82  and  _85
REMARK   33  A    between atoms: _85  and  _86
REMARK   34  A    between atoms: _86  and  _87
REMARK   35  A    between atoms: _87  and  _88
REMARK   36  A    between atoms: _97  and  _99
REMARK   37  A    between atoms: _99  and  _100
REMARK   38  A    between atoms: _99  and  _102
REMARK   39  A    between atoms: _102  and  _103
REMARK   40  A    between atoms: _103  and  _104
REMARK   41  A    between atoms: _104  and  _105
REMARK   42  A    between atoms: _114  and  _116
REMARK   43  A    between atoms: _116  and  _117
REMARK   44  A    between atoms: _116  and  _119
REMARK   45  A    between atoms: _119  and  _120
REMARK   46  A    between atoms: _120  and  _121
REMARK   47  A    between atoms: _125  and  _126
REMARK   48  A    between atoms: _131  and  _133
REMARK   49  A    between atoms: _133  and  _134
REMARK   50  A    between atoms: _133  and  _136
REMARK   51  A    between atoms: _139  and  _141
REMARK   52  A    between atoms: _141  and  _142
REMARK   53  A    between atoms: _141  and  _144
REMARK   54  A    between atoms: _144  and  _145
REMARK   55  A    between atoms: _150  and  _151
REMARK   56  A    between atoms: _153  and  _155
REMARK   57  A    between atoms: _155  and  _156
REMARK   58  A    between atoms: _158  and  _160
REMARK   59  A    between atoms: _160  and  _161
REMARK   60  A    between atoms: _160  and  _163
REMARK   61  A    between atoms: _163  and  _164
REMARK   62  A    between atoms: _164  and  _165
REMARK   63  A    between atoms: _170  and  _172
REMARK   64  A    between atoms: _172  and  _173
REMARK   65  A    between atoms: _172  and  _175
REMARK   66  A    between atoms: _175  and  _176
REMARK   67  A    between atoms: _179  and  _181
REMARK   68  A    between atoms: _181  and  _182
REMARK   69  A    between atoms: _181  and  _184
REMARK   70  A    between atoms: _184  and  _185
REMARK   71  A    between atoms: _188  and  _190
REMARK   72  A    between atoms: _190  and  _191
REMARK   73  A    between atoms: _190  and  _193
REMARK   74  A    between atoms: _193  and  _194
REMARK   75  A    between atoms: _199  and  _201
REMARK   76  A    between atoms: _201  and  _202
REMARK   77  A    between atoms: _205  and  _207
REMARK   78  A    between atoms: _207  and  _208
REMARK   79  A    between atoms: _210  and  _212
REMARK   80  A    between atoms: _212  and  _213
REMARK   81  A    between atoms: _215  and  _217
REMARK   82  A    between atoms: _217  and  _218
REMARK   83  A    between atoms: _217  and  _220
REMARK   84  A    between atoms: _220  and  _221
REMARK   85  A    between atoms: _224  and  _226
REMARK   86  A    between atoms: _226  and  _227
REMARK   87  A    between atoms: _226  and  _229
REMARK   88  A    between atoms: _229  and  _230
REMARK   89  A    between atoms: _233  and  _235
REMARK   90  A    between atoms: _235  and  _236
REMARK   91  A    between atoms: _235  and  _238
REMARK   92  A    between atoms: _238  and  _239
REMARK   93  A    between atoms: _244  and  _246
REMARK   94  A    between atoms: _246  and  _247
REMARK   95  A    between atoms: _246  and  _249
REMARK   96  A    between atoms: _249  and  _250
REMARK   97  A    between atoms: _253  and  _255
REMARK   98  A    between atoms: _255  and  _256
REMARK   99  A    between atoms: _255  and  _258
REMARK  100  A    between atoms: _258  and  _259
REMARK  101  A    between atoms: _259  and  _260
REMARK  102  A    between atoms: _263  and  _265
REMARK  103  A    between atoms: _265  and  _266
REMARK  104  A    between atoms: _265  and  _268
REMARK  105  A    between atoms: _271  and  _273
REMARK  106  A    between atoms: _273  and  _274
REMARK  107  A    between atoms: _273  and  _276
REMARK  108  A    between atoms: _276  and  _277
REMARK  109  A    between atoms: _282  and  _284
REMARK  110  A    between atoms: _284  and  _285
REMARK  111  A    between atoms: _284  and  _287
REMARK  112  A    between atoms: _287  and  _288
REMARK  113  A    between atoms: _291  and  _293
REMARK  114  A    between atoms: _293  and  _294
REMARK  115  A    between atoms: _293  and  _296
REMARK  116  A    between atoms: _296  and  _297
REMARK  117  A    between atoms: _299  and  _301
REMARK  118  A    between atoms: _301  and  _302
REMARK  119  A    between atoms: _301  and  _304
REMARK  120  A    between atoms: _304  and  _305
REMARK  121  A    between atoms: _310  and  _312
REMARK  122  A    between atoms: _312  and  _313
REMARK  123  A    between atoms: _312  and  _315
REMARK  124  A    between atoms: _318  and  _320
REMARK  125  A    between atoms: _320  and  _321
REMARK  126  A    between atoms: _320  and  _323
REMARK  127  A    between atoms: _323  and  _324
REMARK  128  A    between atoms: _329  and  _331
REMARK  129  A    between atoms: _331  and  _332
REMARK  130  A    between atoms: _331  and  _334
REMARK  131  A    between atoms: _334  and  _335
REMARK  132  A    between atoms: _335  and  _336
REMARK  133  A    between atoms: _336  and  _337
REMARK  134  A    between atoms: _346  and  _348
REMARK  135  A    between atoms: _348  and  _349
REMARK  136  A    between atoms: _348  and  _351
REMARK  137  A    between atoms: _351  and  _352
REMARK  138  A    between atoms: _352  and  _353
REMARK  139  A    between atoms: _356  and  _358
REMARK  140  A    between atoms: _358  and  _359
REMARK  141  A    between atoms: _358  and  _361
REMARK  142  A    between atoms: _361  and  _362
REMARK  143  A    between atoms: _368  and  _370
REMARK  144  A    between atoms: _370  and  _371
REMARK  145  A    between atoms: _370  and  _373
REMARK  146  A    between atoms: _373  and  _374
REMARK  147  A    between atoms: _374  and  _375
REMARK  148  A    between atoms: _375  and  _376
REMARK  149  A    between atoms: _385  and  _387
REMARK  150  A    between atoms: _387  and  _388
REMARK  151  A    between atoms: _387  and  _390
REMARK  152  A    between atoms: _390  and  _391
REMARK  153  A    between atoms: _391  and  _392
REMARK  154  A    between atoms: _392  and  _393
REMARK  155  A    between atoms: _402  and  _404
REMARK  156  A    between atoms: _404  and  _405
REMARK  157  A    between atoms: _404  and  _407
REMARK  158  A    between atoms: _407  and  _408
REMARK  159  A    between atoms: _413  and  _415
REMARK  160  A    between atoms: _415  and  _416
REMARK  161  A    between atoms: _415  and  _418
REMARK  162  A    between atoms: _418  and  _419
REMARK  163  A    between atoms: _421  and  _423
REMARK  164  A    between atoms: _423  and  _424
REMARK  165  A    between atoms: _423  and  _426
REMARK  166  A    between atoms: _426  and  _427
REMARK  167  A    between atoms: _430  and  _432
REMARK  168  A    between atoms: _432  and  _433
REMARK  169  A    between atoms: _432  and  _435
REMARK  170  A    between atoms: _435  and  _436
REMARK  171  A    between atoms: _439  and  _441
REMARK  172  A    between atoms: _441  and  _442
REMARK  173  A    between atoms: _441  and  _444
REMARK  174  A    between atoms: _447  and  _449
REMARK  175  A    between atoms: _449  and  _450
REMARK  176  A    between atoms: _452  and  _454
REMARK  177  A    between atoms: _454  and  _455
REMARK  178  A    between atoms: _454  and  _457
REMARK  179  A    between atoms: _457  and  _458
REMARK  180  A    between atoms: _461  and  _463
REMARK  181  A    between atoms: _463  and  _464
REMARK  182  A    between atoms: _466  and  _468
REMARK  183  A    between atoms: _468  and  _469
REMARK  184  A    between atoms: _468  and  _471
REMARK  185  A    between atoms: _471  and  _472
REMARK  186  A    between atoms: _475  and  _477
REMARK  187  A    between atoms: _477  and  _478
REMARK  188  A    between atoms: _477  and  _480
REMARK  189  A    between atoms: _480  and  _481
REMARK  190  A    between atoms: _486  and  _487
REMARK  191  A    between atoms: _489  and  _491
REMARK  192  A    between atoms: _491  and  _492
REMARK  193  A    between atoms: _491  and  _494
REMARK  194  A    between atoms: _494  and  _495
REMARK  195  A    between atoms: _498  and  _500
REMARK  196  A    between atoms: _500  and  _501
REMARK  197  A    between atoms: _500  and  _503
REMARK  198  A    between atoms: _503  and  _504
REMARK  199  A    between atoms: _507  and  _509
REMARK  200  A    between atoms: _509  and  _510
REMARK  201  A    between atoms: _509  and  _512
REMARK  202  A    between atoms: _512  and  _513
REMARK  203  A    between atoms: _518  and  _520
REMARK  204  A    between atoms: _520  and  _521
REMARK  205  A    between atoms: _524  and  _526
REMARK  206  A    between atoms: _526  and  _527
REMARK  207  A    between atoms: _526  and  _529
REMARK  208  A    between atoms: _532  and  _534
REMARK  209  A    between atoms: _534  and  _535
REMARK  210  A    between atoms: _538  and  _540
REMARK  211  A    between atoms: _540  and  _541
REMARK  212  A    between atoms: _540  and  _543
REMARK  213  A    between atoms: _543  and  _544
REMARK  214  A    between atoms: _547  and  _549
REMARK  215  A    between atoms: _549  and  _550
REMARK  216  A    between atoms: _549  and  _552
REMARK  217  A    between atoms: _552  and  _553
REMARK  218  A    between atoms: _553  and  _554
REMARK  219  A    between atoms: _554  and  _555
REMARK  220  A    between atoms: _564  and  _566
REMARK  221  A    between atoms: _566  and  _567
REMARK  222  A    between atoms: _566  and  _569
REMARK  223  A    between atoms: _569  and  _570
REMARK  224  A    between atoms: _573  and  _575
REMARK  225  A    between atoms: _575  and  _576
REMARK  226  A    between atoms: _579  and  _581
REMARK  227  A    between atoms: _581  and  _582
REMARK  228  A    between atoms: _581  and  _584
REMARK  229  A    between atoms: _586  and  _588
REMARK  230  A    between atoms: _588  and  _589
REMARK  231  A    between atoms: _592  and  _594
REMARK  232  A    between atoms: _594  and  _595
REMARK  233  A    between atoms: _594  and  _597
REMARK  234  A    between atoms: _597  and  _598
REMARK  235  A    between atoms: _598  and  _599
REMARK  236  A    between atoms: _602  and  _604
REMARK  237  A    between atoms: _604  and  _605
REMARK  238  A    between atoms: _604  and  _607
REMARK  239  A    between atoms: _607  and  _608
REMARK                            x       y       z     vdW  Elec       q    Type
REMARK                         _______ _______ _______ _____ _____    ______ ____
ROOT
ATOM      1  C   ARG A   7      30.967  34.687  -2.598  0.00  0.00    +0.241 C 
ATOM      2  N   LEU A   8      31.789  34.139  -1.707  0.00  0.00    -0.297 N 
ATOM      3  H   LEU A   8      32.650  33.659  -2.039  0.00  0.00    +0.150 HD
ATOM      4  O   ARG A   7      29.917  35.324  -2.277  0.00  0.00    -0.273 OA
ENDROOT
BRANCH   2   5
ATOM      5  CA  LEU A   8      31.517  34.193  -0.296  0.00  0.00    +0.149 C 
BRANCH   5   6
ATOM      6  C   LEU A   8      31.211  35.622   0.122  0.00  0.00    +0.241 C 
ATOM      7  N   GLY A   9      30.230  35.720   1.006  0.00  0.00    -0.295 N 
ATOM      8  H   GLY A   9      29.535  34.949   1.076  0.00  0.00    +0.150 HD
ATOM      9  O   LEU A   8      31.885  36.605  -0.332  0.00  0.00    -0.273 OA
BRANCH   7  10
ATOM     10  CA  GLY A   9      30.096  36.869   1.879  0.00  0.00    +0.176 C 
BRANCH  10  11
ATOM     11  C   GLY A   9      29.188  37.850   1.196  0.00  0.00    +0.243 C 
ATOM     12  O   GLY A   9      28.170  38.238   1.730  0.00  0.00    -0.273 OA
ATOM     13  N   ARG A  10      29.596  38.238  -0.007  0.00  0.00    -0.297 N 
ATOM     14  H   ARG A  10      30.541  37.929  -0.313  0.00  0.00    +0.150 HD
BRANCH  13  15
ATOM     15  CA  ARG A  10      28.836  39.054  -0.925  0.00  0.00    +0.149 C 
BRANCH  15  16
ATOM     16  C   ARG A  10      27.496  38.429  -1.292  0.00  0.00    +0.241 C 
ATOM     17  O   ARG A  10      26.486  39.119  -1.433  0.00  0.00    -0.273 OA
ATOM     18  N   ARG A  11      27.510  37.110  -1.434  0.00  0.00    -0.297 N 
ATOM     19  H   ARG A  11      28.374  36.596  -1.167  0.00  0.00    +0.150 HD
BRANCH  18  20
ATOM     20  CA  ARG A  11      26.372  36.337  -1.948  0.00  0.00    +0.149 C 
BRANCH  20  21
ATOM     21  C   ARG A  11      26.063  35.183  -0.958  0.00  0.00    +0.241 C 
ATOM     22  O   ARG A  11      26.977  34.701  -0.272  0.00  0.00    -0.273 OA
ATOM     23  N   GLU A  12      24.798  34.760  -0.851  0.00  0.00    -0.297 N 
ATOM     24  H   GLU A  12      24.059  35.204  -1.433  0.00  0.00    +0.150 HD
BRANCH  23  25
ATOM     25  CA  GLU A  12      24.430  33.664   0.087  0.00  0.00    +0.149 C 
BRANCH  25  26
ATOM     26  C   GLU A  12      24.909  33.869   1.566  0.00  0.00    +0.244 C 
ATOM     27  O   GLU A  12      25.244  32.900   2.244  0.00  0.00    -0.273 OA
ATOM     28  N   PRO A  13      24.918  35.139   2.062  0.00  0.00    -0.273 N 
ATOM     29  CA  PRO A  13      25.405  35.389   3.438  0.00  0.00    +0.140 C 
ATOM     30  CB  PRO A  13      25.167  36.895   3.662  0.00  0.00    +0.030 C 
ATOM     31  CG  PRO A  13      24.040  37.228   2.679  0.00  0.00    +0.024 C 
ATOM     32  CD  PRO A  13      24.378  36.382   1.454  0.00  0.00    +0.094 C 
BRANCH  29  33
ATOM     33  C   PRO A  13      24.679  34.586   4.509  0.00  0.00    +0.227 C 
ATOM     34  O   PRO A  13      25.310  34.227   5.502  0.00  0.00    -0.286 OA
ENDBRANCH  29  33
ENDBRANCH  25  26
BRANCH  25  35
ATOM     35  CB  GLU A  12      24.857  32.276  -0.464  0.00  0.00    +0.041 C 
BRANCH  35  36
ATOM     36  CG  GLU A  12      24.259  31.910  -1.816  0.00  0.00    +0.116 C 
BRANCH  36  37
ATOM     37  CD  GLU A  12      22.772  31.507  -1.719  0.00  0.00    +0.365 C 
ATOM     38  OE2 GLU A  12      21.926  32.404  -1.627  0.00  0.00    -0.246 OA
ATOM     39  OE1 GLU A  12      22.464  30.281  -1.739  0.00  0.00    -0.246 OA
ENDBRANCH  36  37
ENDBRANCH  35  36
ENDBRANCH  25  35
ENDBRANCH  23  25
ENDBRANCH  20  21
BRANCH  20  40
ATOM     40  CB  ARG A  11      26.783  35.808  -3.330  0.00  0.00    +0.033 C 
BRANCH  40  41
ATOM     41  CG  ARG A  11      27.192  36.944  -4.334  0.00  0.00    +0.045 C 
BRANCH  41  42
ATOM     42  CD  ARG A  11      26.003  37.900  -4.651  0.00  0.00    +0.174 C 
BRANCH  42  43
ATOM     43  NE  ARG A  11      24.802  37.097  -5.020  0.00  0.00    -0.265 N 
ATOM     44  HE  ARG A  11      24.894  36.064  -4.941  0.00  0.00    +0.259 HD
ATOM     45  CZ  ARG A  11      23.613  37.562  -5.444  0.00  0.00    +0.342 C 
ATOM     46  NH2 ARG A  11      23.368  38.870  -5.565  0.00  0.00    -0.292 N 
ATOM     47 HH21 ARG A  11      24.108  39.562  -5.328  0.00  0.00    +0.255 HD
ATOM     48 HH22 ARG A  11      22.438  39.196  -5.896  0.00  0.00    +0.255 HD
ATOM     49  NH1 ARG A  11      22.654  36.695  -5.745  0.00  0.00    -0.292 N 
ATOM     50 HH11 ARG A  11      22.828  35.674  -5.652  0.00  0.00    +0.255 HD
ATOM     51 HH12 ARG A  11      21.729  37.037  -6.074  0.00  0.00    +0.255 HD
ENDBRANCH  42  43
ENDBRANCH  41  42
ENDBRANCH  40  41
ENDBRANCH  20  40
ENDBRANCH  18  20
ENDBRANCH  15  16
BRANCH  15  52
ATOM     52  CB  ARG A  10      29.659  39.191  -2.216  0.00  0.00    +0.033 C 
BRANCH  52  53
ATOM     53  CG  ARG A  10      30.076  40.607  -2.502  0.00  0.00    +0.045 C 
BRANCH  53  54
ATOM     54  CD  ARG A  10      28.823  41.496  -2.524  0.00  0.00    +0.174 C 
BRANCH  54  55
ATOM     55  NE  ARG A  10      29.017  42.717  -3.311  0.00  0.00    -0.265 N 
ATOM     56  HE  ARG A  10      29.967  43.139  -3.324  0.00  0.00    +0.259 HD
ATOM     57  CZ  ARG A  10      28.060  43.322  -4.010  0.00  0.00    +0.342 C 
ATOM     58  NH2 ARG A  10      26.830  42.809  -4.049  0.00  0.00    -0.292 N 
ATOM     59 HH21 ARG A  10      26.615  41.933  -3.532  0.00  0.00    +0.255 HD
ATOM     60 HH22 ARG A  10      26.085  43.285  -4.597  0.00  0.00    +0.255 HD
ATOM     61  NH1 ARG A  10      28.349  44.437  -4.691  0.00  0.00    -0.292 N 
ATOM     62 HH11 ARG A  10      29.314  44.823  -4.671  0.00  0.00    +0.255 HD
ATOM     63 HH12 ARG A  10      27.608  44.917  -5.240  0.00  0.00    +0.255 HD
ENDBRANCH  54  55
ENDBRANCH  53  54
ENDBRANCH  52  53
ENDBRANCH  15  52
ENDBRANCH  13  15
ENDBRANCH  10  11
ENDBRANCH   7  10
ENDBRANCH   5   6
BRANCH   5  64
ATOM     64  CB  LEU A   8      32.732  33.710   0.496  0.00  0.00    +0.029 C 
BRANCH  64  65
ATOM     65  CG  LEU A   8      32.791  32.212   0.766  0.00  0.00    +0.002 C 
ATOM     66  CD2 LEU A   8      31.603  31.745   1.646  0.00  0.00    +0.000 C 
ATOM     67  CD1 LEU A   8      34.118  31.958   1.459  0.00  0.00    +0.000 C 
ENDBRANCH  64  65
ENDBRANCH   5  64
ENDBRANCH   2   5
BRANCH   1  68
ATOM     68  CA  ARG A   7      31.395  34.541  -4.046  0.00  0.00    +0.149 C 
BRANCH  68  70
ATOM     69  C   GLY A   6      33.802  34.090  -4.453  0.00  0.00    +0.243 C 
ATOM     70  N   ARG A   7      32.523  33.634  -4.333  0.00  0.00    -0.297 N 
ATOM     71  H   ARG A   7      32.337  32.617  -4.447  0.00  0.00    +0.150 HD
ATOM     72  O   GLY A   6      34.116  35.286  -4.334  0.00  0.00    -0.273 OA
BRANCH  69  73
ATOM     73  CA  GLY A   6      34.877  33.057  -4.791  0.00  0.00    +0.176 C 
BRANCH  73  76
ATOM     74  C   LEU A   5      34.017  31.383  -3.228  0.00  0.00    +0.241 C 
ATOM     75  O   LEU A   5      34.237  32.099  -2.248  0.00  0.00    -0.273 OA
ATOM     76  N   GLY A   6      34.362  31.704  -4.476  0.00  0.00    -0.295 N 
ATOM     77  H   GLY A   6      34.269  30.998  -5.234  0.00  0.00    +0.150 HD
BRANCH  74  78
ATOM     78  CA  LEU A   5      33.321  30.040  -3.019  0.00  0.00    +0.149 C 
BRANCH  78  80
ATOM     79  C   ASN A   4      31.882  29.963  -4.953  0.00  0.00    +0.241 C 
ATOM     80  N   LEU A   5      32.919  29.451  -4.308  0.00  0.00    -0.297 N 
ATOM     81  H   LEU A   5      33.442  28.645  -4.706  0.00  0.00    +0.150 HD
ATOM     82  O   ASN A   4      31.304  31.014  -4.598  0.00  0.00    -0.273 OA
BRANCH  79  83
ATOM     83  CA  ASN A   4      31.364  29.163  -6.130  0.00  0.00    +0.158 C 
BRANCH  83  86
ATOM     84  C   PRO A   3      32.461  26.942  -6.111  0.00  0.00    +0.241 C 
ATOM     85  O   PRO A   3      31.928  26.532  -5.079  0.00  0.00    -0.273 OA
ATOM     86  N   ASN A   4      32.289  28.178  -6.636  0.00  0.00    -0.297 N 
ATOM     87  H   ASN A   4      32.865  28.436  -7.463  0.00  0.00    +0.150 HD
BRANCH  84  94
ATOM     88  C   GLY A   2      35.191  25.833  -5.151  0.00  0.00    +0.246 C 
ATOM     89  O   GLY A   2      35.088  27.003  -4.771  0.00  0.00    -0.273 OA
ATOM     90  N   PRO A   3      34.354  25.281  -6.045  0.00  0.00    -0.272 N 
ATOM     91  CD  PRO A   3      34.407  23.851  -6.415  0.00  0.00    +0.094 C 
ATOM     92  CG  PRO A   3      33.458  23.762  -7.541  0.00  0.00    +0.024 C 
ATOM     93  CB  PRO A   3      32.666  25.010  -7.653  0.00  0.00    +0.031 C 
ATOM     94  CA  PRO A   3      33.438  26.059  -6.878  0.00  0.00    +0.152 C 
BRANCH  88  95
ATOM     95  CA  GLY A   2      36.331  24.936  -4.632  0.00  0.00    +0.176 C 
BRANCH  95  97
ATOM     96  C   ASN A   1      37.898  26.231  -3.389  0.00  0.00    +0.239 C 
ATOM     97  N   GLY A   2      36.835  25.438  -3.395  0.00  0.00    -0.296 N 
ATOM     98  H   GLY A   2      36.370  25.183  -2.500  0.00  0.00    +0.150 HD
ATOM     99  O   ASN A   1      38.405  26.668  -4.434  0.00  0.00    -0.274 OA
BRANCH  96 100
ATOM    100  CA  ASN A   1      38.471  26.585  -2.021  0.00  0.00    +0.154 C 
BRANCH 100 101
ATOM    101  N   ASN A   1      39.918  26.453  -1.952  0.00  0.00    -0.238 NA
ATOM    102  H   ASN A   1      40.492  27.122  -2.505  0.00  0.00    +0.142 HD
ENDBRANCH 100 101
BRANCH 100 103
ATOM    103  CB  ASN A   1      38.048  28.027  -1.681  0.00  0.00    +0.111 C 
BRANCH 103 104
ATOM    104  CG  ASN A   1      37.951  28.270  -0.134  0.00  0.00    +0.221 C 
ATOM    105  OD1 ASN A   1      37.719  27.349   0.657  0.00  0.00    -0.275 OA
ATOM    106  ND2 ASN A   1      38.162  29.510   0.273  0.00  0.00    -0.329 N 
ATOM    107 HD21 ASN A   1      38.136  29.736   1.288  0.00  0.00    +0.145 HD
ATOM    108 HD22 ASN A   1      38.354  30.260  -0.422  0.00  0.00    +0.145 HD
ENDBRANCH 103 104
ENDBRANCH 100 103
ENDBRANCH  96 100
ENDBRANCH  95  97
ENDBRANCH  88  95
ENDBRANCH  84  94
ENDBRANCH  83  86
BRANCH  83 109
ATOM    109  CB  ASN A   4      29.996  28.555  -5.794  0.00  0.00    +0.114 C 
BRANCH 109 110
ATOM    110  CG  ASN A   4      29.397  27.771  -6.965  0.00  0.00    +0.222 C 
ATOM    111  ND2 ASN A   4      28.714  26.661  -6.655  0.00  0.00    -0.329 N 
ATOM    112 HD21 ASN A   4      28.617  26.371  -5.661  0.00  0.00    +0.145 HD
ATOM    113 HD22 ASN A   4      28.281  26.090  -7.408  0.00  0.00    +0.145 HD
ATOM    114  OD1 ASN A   4      29.543  28.162  -8.129  0.00  0.00    -0.275 OA
ENDBRANCH 109 110
ENDBRANCH  83 109
ENDBRANCH  79  83
ENDBRANCH  78  80
BRANCH  78 115
ATOM    115  CB  LEU A   5      34.176  29.093  -2.167  0.00  0.00    +0.029 C 
BRANCH 115 116
ATOM    116  CG  LEU A   5      33.320  27.904  -1.678  0.00  0.00    +0.002 C 
ATOM    117  CD2 LEU A   5      32.418  28.305  -0.555  0.00  0.00    +0.000 C 
ATOM    118  CD1 LEU A   5      34.234  26.810  -1.221  0.00  0.00    +0.000 C 
ENDBRANCH 115 116
ENDBRANCH  78 115
ENDBRANCH  74  78
ENDBRANCH  73  76
ENDBRANCH  69  73
ENDBRANCH  68  70
BRANCH  68 119
ATOM    119  CB  ARG A   7      30.196  34.108  -4.870  0.00  0.00    +0.033 C 
BRANCH 119 120
ATOM    120  CG  ARG A   7      30.558  34.236  -6.365  0.00  0.00    +0.045 C 
BRANCH 120 121
ATOM    121  CD  ARG A   7      29.473  33.552  -7.220  0.00  0.00    +0.174 C 
BRANCH 121 122
ATOM    122  NE  ARG A   7      28.198  34.270  -7.204  0.00  0.00    -0.265 N 
ATOM    123  HE  ARG A   7      27.408  33.814  -6.705  0.00  0.00    +0.259 HD
ATOM    124  CZ  ARG A   7      27.951  35.460  -7.771  0.00  0.00    +0.342 C 
ATOM    125  NH2 ARG A   7      26.740  35.973  -7.663  0.00  0.00    -0.292 N 
ATOM    126 HH21 ARG A   7      26.000  35.456  -7.146  0.00  0.00    +0.255 HD
ATOM    127 HH22 ARG A   7      26.525  36.895  -8.095  0.00  0.00    +0.255 HD
ATOM    128  NH1 ARG A   7      28.903  36.159  -8.394  0.00  0.00    -0.292 N 
ATOM    129 HH11 ARG A   7      29.871  35.783  -8.450  0.00  0.00    +0.255 HD
ATOM    130 HH12 ARG A   7      28.676  37.079  -8.823  0.00  0.00    +0.255 HD
ENDBRANCH 121 122
ENDBRANCH 120 121
ENDBRANCH 119 120
ENDBRANCH  68 119
ENDBRANCH   1  68
TORSDOF 47
REMARK  Name = ../refined-set-2016/3n86/3n86_pocket.pdb
REMARK  239 active torsions:
REMARK  status: ('A' for Active; 'I' for Inactive)
REMARK    1  A    between atoms: _1  and  _3
REMARK    2  A    between atoms: _3  and  _4
REMARK    3  A    between atoms: _3  and  _6
REMARK    4  A    between atoms: _6  and  _7
REMARK    5  A    between atoms: _12  and  _14
REMARK    6  A    between atoms: _14  and  _15
REMARK    7  A    between atoms: _18  and  _19
REMARK    8  A    between atoms: _24  and  _26
REMARK    9  A    between atoms: _26  and  _27
REMARK   10  A    between atoms: _26  and  _29
REMARK   11  A    between atoms: _29  and  _30
REMARK   12  A    between atoms: _35  and  _37
REMARK   13  A    between atoms: _37  and  _38
REMARK   14  A    between atoms: _37  and  _40
REMARK   15  A    between atoms: _40  and  _41
REMARK   16  A    between atoms: _44  and  _46
REMARK   17  A    between atoms: _46  and  _47
REMARK   18  A    between atoms: _49  and  _51
REMARK   19  A    between atoms: _51  and  _52
REMARK   20  A    between atoms: _51  and  _54
REMARK   21  A    between atoms: _54  and  _55
REMARK   22  A    between atoms: _55  and  _56
REMARK   23  A    between atoms: _56  and  _57
REMARK   24  A    between atoms: _66  and  _68
REMARK   25  A    between atoms: _68  and  _69
REMARK   26  A    between atoms: _68  and  _71
REMARK   27  A    between atoms: _71  and  _72
REMARK   28  A    between atoms: _75  and  _77
REMARK   29  A    between atoms: _77  and  _78
REMARK   30  A    between atoms: _80  and  _82
REMARK   31  A    between atoms: _82  and  _83
REMARK   32  A    between atoms: _82  and  _85
REMARK   33  A    between atoms: _85  and  _86
REMARK   34  A    between atoms: _86  and  _87
REMARK   35  A    between atoms: _87  and  _88
REMARK   36  A    between atoms: _97  and  _99
REMARK   37  A    between atoms: _99  and  _100
REMARK   38  A    between atoms: _99  and  _102
REMARK   39  A    between atoms: _102  and  _103
REMARK   40  A    between atoms: _103  and  _104
REMARK   41  A    between atoms: _104  and  _105
REMARK   42  A    between atoms: _114  and  _116
REMARK   43  A    between atoms: _116  and  _117
REMARK   44  A    between atoms: _116  and  _119
REMARK   45  A    between atoms: _119  and  _120
REMARK   46  A    between atoms: _120  and  _121
REMARK   47  A    between atoms: _125  and  _126
REMARK   48  A    between atoms: _131  and  _133
REMARK   49  A    between atoms: _133  and  _134
REMARK   50  A    between atoms: _133  and  _136
REMARK   51  A    between atoms: _139  and  _141
REMARK   52  A    between atoms: _141  and  _142
REMARK   53  A    between atoms: _141  and  _144
REMARK   54  A    between atoms: _144  and  _145
REMARK   55  A    between atoms: _150  and  _151
REMARK   56  A    between atoms: _153  and  _155
REMARK   57  A    between atoms: _155  and  _156
REMARK   58  A    between atoms: _158  and  _160
REMARK   59  A    between atoms: _160  and  _161
REMARK   60  A    between atoms: _160  and  _163
REMARK   61  A    between atoms: _163  and  _164
REMARK   62  A    between atoms: _164  and  _165
REMARK   63  A    between atoms: _170  and  _172
REMARK   64  A    between atoms: _172  and  _173
REMARK   65  A    between atoms: _172  and  _175
REMARK   66  A    between atoms: _175  and  _176
REMARK   67  A    between atoms: _179  and  _181
REMARK   68  A    between atoms: _181  and  _182
REMARK   69  A    between atoms: _181  and  _184
REMARK   70  A    between atoms: _184  and  _185
REMARK   71  A    between atoms: _188  and  _190
REMARK   72  A    between atoms: _190  and  _191
REMARK   73  A    between atoms: _190  and  _193
REMARK   74  A    between atoms: _193  and  _194
REMARK   75  A    between atoms: _199  and  _201
REMARK   76  A    between atoms: _201  and  _202
REMARK   77  A    between atoms: _205  and  _207
REMARK   78  A    between atoms: _207  and  _208
REMARK   79  A    between atoms: _210  and  _212
REMARK   80  A    between atoms: _212  and  _213
REMARK   81  A    between atoms: _215  and  _217
REMARK   82  A    between atoms: _217  and  _218
REMARK   83  A    between atoms: _217  and  _220
REMARK   84  A    between atoms: _220  and  _221
REMARK   85  A    between atoms: _224  and  _226
REMARK   86  A    between atoms: _226  and  _227
REMARK   87  A    between atoms: _226  and  _229
REMARK   88  A    between atoms: _229  and  _230
REMARK   89  A    between atoms: _233  and  _235
REMARK   90  A    between atoms: _235  and  _236
REMARK   91  A    between atoms: _235  and  _238
REMARK   92  A    between atoms: _238  and  _239
REMARK   93  A    between atoms: _244  and  _246
REMARK   94  A    between atoms: _246  and  _247
REMARK   95  A    between atoms: _246  and  _249
REMARK   96  A    between atoms: _249  and  _250
REMARK   97  A    between atoms: _253  and  _255
REMARK   98  A    between atoms: _255  and  _256
REMARK   99  A    between atoms: _255  and  _258
REMARK  100  A    between atoms: _258  and  _259
REMARK  101  A    between atoms: _259  and  _260
REMARK  102  A    between atoms: _263  and  _265
REMARK  103  A    between atoms: _265  and  _266
REMARK  104  A    between atoms: _265  and  _268
REMARK  105  A    between atoms: _271  and  _273
REMARK  106  A    between atoms: _273  and  _274
REMARK  107  A    between atoms: _273  and  _276
REMARK  108  A    between atoms: _276  and  _277
REMARK  109  A    between atoms: _282  and  _284
REMARK  110  A    between atoms: _284  and  _285
REMARK  111  A    between atoms: _284  and  _287
REMARK  112  A    between atoms: _287  and  _288
REMARK  113  A    between atoms: _291  and  _293
REMARK  114  A    between atoms: _293  and  _294
REMARK  115  A    between atoms: _293  and  _296
REMARK  116  A    between atoms: _296  and  _297
REMARK  117  A    between atoms: _299  and  _301
REMARK  118  A    between atoms: _301  and  _302
REMARK  119  A    between atoms: _301  and  _304
REMARK  120  A    between atoms: _304  and  _305
REMARK  121  A    between atoms: _310  and  _312
REMARK  122  A    between atoms: _312  and  _313
REMARK  123  A    between atoms: _312  and  _315
REMARK  124  A    between atoms: _318  and  _320
REMARK  125  A    between atoms: _320  and  _321
REMARK  126  A    between atoms: _320  and  _323
REMARK  127  A    between atoms: _323  and  _324
REMARK  128  A    between atoms: _329  and  _331
REMARK  129  A    between atoms: _331  and  _332
REMARK  130  A    between atoms: _331  and  _334
REMARK  131  A    between atoms: _334  and  _335
REMARK  132  A    between atoms: _335  and  _336
REMARK  133  A    between atoms: _336  and  _337
REMARK  134  A    between atoms: _346  and  _348
REMARK  135  A    between atoms: _348  and  _349
REMARK  136  A    between atoms: _348  and  _351
REMARK  137  A    between atoms: _351  and  _352
REMARK  138  A    between atoms: _352  and  _353
REMARK  139  A    between atoms: _356  and  _358
REMARK  140  A    between atoms: _358  and  _359
REMARK  141  A    between atoms: _358  and  _361
REMARK  142  A    between atoms: _361  and  _362
REMARK  143  A    between atoms: _368  and  _370
REMARK  144  A    between atoms: _370  and  _371
REMARK  145  A    between atoms: _370  and  _373
REMARK  146  A    between atoms: _373  and  _374
REMARK  147  A    between atoms: _374  and  _375
REMARK  148  A    between atoms: _375  and  _376
REMARK  149  A    between atoms: _385  and  _387
REMARK  150  A    between atoms: _387  and  _388
REMARK  151  A    between atoms: _387  and  _390
REMARK  152  A    between atoms: _390  and  _391
REMARK  153  A    between atoms: _391  and  _392
REMARK  154  A    between atoms: _392  and  _393
REMARK  155  A    between atoms: _402  and  _404
REMARK  156  A    between atoms: _404  and  _405
REMARK  157  A    between atoms: _404  and  _407
REMARK  158  A    between atoms: _407  and  _408
REMARK  159  A    between atoms: _413  and  _415
REMARK  160  A    between atoms: _415  and  _416
REMARK  161  A    between atoms: _415  and  _418
REMARK  162  A    between atoms: _418  and  _419
REMARK  163  A    between atoms: _421  and  _423
REMARK  164  A    between atoms: _423  and  _424
REMARK  165  A    between atoms: _423  and  _426
REMARK  166  A    between atoms: _426  and  _427
REMARK  167  A    between atoms: _430  and  _432
REMARK  168  A    between atoms: _432  and  _433
REMARK  169  A    between atoms: _432  and  _435
REMARK  170  A    between atoms: _435  and  _436
REMARK  171  A    between atoms: _439  and  _441
REMARK  172  A    between atoms: _441  and  _442
REMARK  173  A    between atoms: _441  and  _444
REMARK  174  A    between atoms: _447  and  _449
REMARK  175  A    between atoms: _449  and  _450
REMARK  176  A    between atoms: _452  and  _454
REMARK  177  A    between atoms: _454  and  _455
REMARK  178  A    between atoms: _454  and  _457
REMARK  179  A    between atoms: _457  and  _458
REMARK  180  A    between atoms: _461  and  _463
REMARK  181  A    between atoms: _463  and  _464
REMARK  182  A    between atoms: _466  and  _468
REMARK  183  A    between atoms: _468  and  _469
REMARK  184  A    between atoms: _468  and  _471
REMARK  185  A    between atoms: _471  and  _472
REMARK  186  A    between atoms: _475  and  _477
REMARK  187  A    between atoms: _477  and  _478
REMARK  188  A    between atoms: _477  and  _480
REMARK  189  A    between atoms: _480  and  _481
REMARK  190  A    between atoms: _486  and  _487
REMARK  191  A    between atoms: _489  and  _491
REMARK  192  A    between atoms: _491  and  _492
REMARK  193  A    between atoms: _491  and  _494
REMARK  194  A    between atoms: _494  and  _495
REMARK  195  A    between atoms: _498  and  _500
REMARK  196  A    between atoms: _500  and  _501
REMARK  197  A    between atoms: _500  and  _503
REMARK  198  A    between atoms: _503  and  _504
REMARK  199  A    between atoms: _507  and  _509
REMARK  200  A    between atoms: _509  and  _510
REMARK  201  A    between atoms: _509  and  _512
REMARK  202  A    between atoms: _512  and  _513
REMARK  203  A    between atoms: _518  and  _520
REMARK  204  A    between atoms: _520  and  _521
REMARK  205  A    between atoms: _524  and  _526
REMARK  206  A    between atoms: _526  and  _527
REMARK  207  A    between atoms: _526  and  _529
REMARK  208  A    between atoms: _532  and  _534
REMARK  209  A    between atoms: _534  and  _535
REMARK  210  A    between atoms: _538  and  _540
REMARK  211  A    between atoms: _540  and  _541
REMARK  212  A    between atoms: _540  and  _543
REMARK  213  A    between atoms: _543  and  _544
REMARK  214  A    between atoms: _547  and  _549
REMARK  215  A    between atoms: _549  and  _550
REMARK  216  A    between atoms: _549  and  _552
REMARK  217  A    between atoms: _552  and  _553
REMARK  218  A    between atoms: _553  and  _554
REMARK  219  A    between atoms: _554  and  _555
REMARK  220  A    between atoms: _564  and  _566
REMARK  221  A    between atoms: _566  and  _567
REMARK  222  A    between atoms: _566  and  _569
REMARK  223  A    between atoms: _569  and  _570
REMARK  224  A    between atoms: _573  and  _575
REMARK  225  A    between atoms: _575  and  _576
REMARK  226  A    between atoms: _579  and  _581
REMARK  227  A    between atoms: _581  and  _582
REMARK  228  A    between atoms: _581  and  _584
REMARK  229  A    between atoms: _586  and  _588
REMARK  230  A    between atoms: _588  and  _589
REMARK  231  A    between atoms: _592  and  _594
REMARK  232  A    between atoms: _594  and  _595
REMARK  233  A    between atoms: _594  and  _597
REMARK  234  A    between atoms: _597  and  _598
REMARK  235  A    between atoms: _598  and  _599
REMARK  236  A    between atoms: _602  and  _604
REMARK  237  A    between atoms: _604  and  _605
REMARK  238  A    between atoms: _604  and  _607
REMARK  239  A    between atoms: _607  and  _608
REMARK                            x       y       z     vdW  Elec       q    Type
REMARK                         _______ _______ _______ _____ _____    ______ ____
ROOT
ATOM      1  CA  TYR A   2      27.994  30.758   4.175  0.00  0.00    +0.153 C 
ENDROOT
BRANCH   1   4
ATOM      2  C   VAL A   1      25.657  30.014   4.644  0.00  0.00    +0.238 C 
ATOM      3  O   VAL A   1      25.998  29.112   5.361  0.00  0.00    -0.274 OA
ATOM      4  N   TYR A   2      26.525  30.924   4.161  0.00  0.00    -0.297 N 
ATOM      5  H   TYR A   2      26.137  31.798   3.753  0.00  0.00    +0.150 HD
BRANCH   2   6
ATOM      6  CA  VAL A   1      24.164  30.161   4.259  0.00  0.00    +0.145 C 
BRANCH   6   7
ATOM      7  CB  VAL A   1      23.898  29.549   2.823  0.00  0.00    +0.025 C 
ATOM      8  CG2 VAL A   1      24.192  28.006   2.793  0.00  0.00    +0.002 C 
ATOM      9  CG1 VAL A   1      22.480  29.882   2.320  0.00  0.00    +0.002 C 
ENDBRANCH   6   7
BRANCH   6  10
ATOM     10  N   VAL A   1      23.761  31.560   4.322  0.00  0.00    -0.238 NA
ATOM     11  H   VAL A   1      24.031  32.210   3.557  0.00  0.00    +0.142 HD
ENDBRANCH   6  10
ENDBRANCH   2   6
ENDBRANCH   1   4
BRANCH   1  12
ATOM     12  C   TYR A   2      28.732  31.894   4.866  0.00  0.00    +0.241 C 
ATOM     13  N   GLY A   3      27.977  32.804   5.494  0.00  0.00    -0.296 N 
ATOM     14  H   GLY A   3      26.942  32.726   5.423  0.00  0.00    +0.150 HD
ATOM     15  O   TYR A   2      29.965  31.930   4.848  0.00  0.00    -0.273 OA
BRANCH  13  16
ATOM     16  CA  GLY A   3      28.554  33.921   6.288  0.00  0.00    +0.163 C 
BRANCH  16  17
ATOM     17  C   GLY A   3      28.675  35.247   5.514  0.00  0.00    +0.229 C 
ATOM     18  O   GLY A   3      28.466  35.298   4.278  0.00  0.00    -0.286 OA
ENDBRANCH  16  17
ENDBRANCH  13  16
ENDBRANCH   1  12
BRANCH   1  19
ATOM     19  CB  TYR A   2      28.532  30.552   2.729  0.00  0.00    +0.055 C 
BRANCH  19  20
ATOM     20  CG  TYR A   2      28.002  29.245   2.096  0.00  0.00    -0.020 A 
ATOM     21  CD2 TYR A   2      28.348  27.959   2.644  0.00  0.00    -0.001 A 
ATOM     22  CE2 TYR A   2      27.824  26.735   2.059  0.00  0.00    +0.036 A 
ATOM     23  CZ  TYR A   2      26.928  26.816   0.988  0.00  0.00    +0.134 A 
ATOM     24  CE1 TYR A   2      26.573  28.050   0.427  0.00  0.00    +0.036 A 
ATOM     25  CD1 TYR A   2      27.114  29.285   1.018  0.00  0.00    -0.001 A 
BRANCH  23  26
ATOM     26  OH  TYR A   2      26.398  25.698   0.430  0.00  0.00    -0.506 OA
ATOM     27  HH  TYR A   2      25.791  25.955  -0.309  0.00  0.00    +0.292 HD
ENDBRANCH  23  26
ENDBRANCH  19  20
ENDBRANCH   1  19
TORSDOF 10
REMARK  Name = ../refined-set-2016/3n86/3n86_pocket.pdb
REMARK  239 active torsions:
REMARK  status: ('A' for Active; 'I' for Inactive)
REMARK    1  A    between atoms: _1  and  _3
REMARK    2  A    between atoms: _3  and  _4
REMARK    3  A    between atoms: _3  and  _6
REMARK    4  A    between atoms: _6  and  _7
REMARK    5  A    between atoms: _12  and  _14
REMARK    6  A    between atoms: _14  and  _15
REMARK    7  A    between atoms: _18  and  _19
REMARK    8  A    between atoms: _24  and  _26
REMARK    9  A    between atoms: _26  and  _27
REMARK   10  A    between atoms: _26  and  _29
REMARK   11  A    between atoms: _29  and  _30
REMARK   12  A    between atoms: _35  and  _37
REMARK   13  A    between atoms: _37  and  _38
REMARK   14  A    between atoms: _37  and  _40
REMARK   15  A    between atoms: _40  and  _41
REMARK   16  A    between atoms: _44  and  _46
REMARK   17  A    between atoms: _46  and  _47
REMARK   18  A    between atoms: _49  and  _51
REMARK   19  A    between atoms: _51  and  _52
REMARK   20  A    between atoms: _51  and  _54
REMARK   21  A    between atoms: _54  and  _55
REMARK   22  A    between atoms: _55  and  _56
REMARK   23  A    between atoms: _56  and  _57
REMARK   24  A    between atoms: _66  and  _68
REMARK   25  A    between atoms: _68  and  _69
REMARK   26  A    between atoms: _68  and  _71
REMARK   27  A    between atoms: _71  and  _72
REMARK   28  A    between atoms: _75  and  _77
REMARK   29  A    between atoms: _77  and  _78
REMARK   30  A    between atoms: _80  and  _82
REMARK   31  A    between atoms: _82  and  _83
REMARK   32  A    between atoms: _82  and  _85
REMARK   33  A    between atoms: _85  and  _86
REMARK   34  A    between atoms: _86  and  _87
REMARK   35  A    between atoms: _87  and  _88
REMARK   36  A    between atoms: _97  and  _99
REMARK   37  A    between atoms: _99  and  _100
REMARK   38  A    between atoms: _99  and  _102
REMARK   39  A    between atoms: _102  and  _103
REMARK   40  A    between atoms: _103  and  _104
REMARK   41  A    between atoms: _104  and  _105
REMARK   42  A    between atoms: _114  and  _116
REMARK   43  A    between atoms: _116  and  _117
REMARK   44  A    between atoms: _116  and  _119
REMARK   45  A    between atoms: _119  and  _120
REMARK   46  A    between atoms: _120  and  _121
REMARK   47  A    between atoms: _125  and  _126
REMARK   48  A    between atoms: _131  and  _133
REMARK   49  A    between atoms: _133  and  _134
REMARK   50  A    between atoms: _133  and  _136
REMARK   51  A    between atoms: _139  and  _141
REMARK   52  A    between atoms: _141  and  _142
REMARK   53  A    between atoms: _141  and  _144
REMARK   54  A    between atoms: _144  and  _145
REMARK   55  A    between atoms: _150  and  _151
REMARK   56  A    between atoms: _153  and  _155
REMARK   57  A    between atoms: _155  and  _156
REMARK   58  A    between atoms: _158  and  _160
REMARK   59  A    between atoms: _160  and  _161
REMARK   60  A    between atoms: _160  and  _163
REMARK   61  A    between atoms: _163  and  _164
REMARK   62  A    between atoms: _164  and  _165
REMARK   63  A    between atoms: _170  and  _172
REMARK   64  A    between atoms: _172  and  _173
REMARK   65  A    between atoms: _172  and  _175
REMARK   66  A    between atoms: _175  and  _176
REMARK   67  A    between atoms: _179  and  _181
REMARK   68  A    between atoms: _181  and  _182
REMARK   69  A    between atoms: _181  and  _184
REMARK   70  A    between atoms: _184  and  _185
REMARK   71  A    between atoms: _188  and  _190
REMARK   72  A    between atoms: _190  and  _191
REMARK   73  A    between atoms: _190  and  _193
REMARK   74  A    between atoms: _193  and  _194
REMARK   75  A    between atoms: _199  and  _201
REMARK   76  A    between atoms: _201  and  _202
REMARK   77  A    between atoms: _205  and  _207
REMARK   78  A    between atoms: _207  and  _208
REMARK   79  A    between atoms: _210  and  _212
REMARK   80  A    between atoms: _212  and  _213
REMARK   81  A    between atoms: _215  and  _217
REMARK   82  A    between atoms: _217  and  _218
REMARK   83  A    between atoms: _217  and  _220
REMARK   84  A    between atoms: _220  and  _221
REMARK   85  A    between atoms: _224  and  _226
REMARK   86  A    between atoms: _226  and  _227
REMARK   87  A    between atoms: _226  and  _229
REMARK   88  A    between atoms: _229  and  _230
REMARK   89  A    between atoms: _233  and  _235
REMARK   90  A    between atoms: _235  and  _236
REMARK   91  A    between atoms: _235  and  _238
REMARK   92  A    between atoms: _238  and  _239
REMARK   93  A    between atoms: _244  and  _246
REMARK   94  A    between atoms: _246  and  _247
REMARK   95  A    between atoms: _246  and  _249
REMARK   96  A    between atoms: _249  and  _250
REMARK   97  A    between atoms: _253  and  _255
REMARK   98  A    between atoms: _255  and  _256
REMARK   99  A    between atoms: _255  and  _258
REMARK  100  A    between atoms: _258  and  _259
REMARK  101  A    between atoms: _259  and  _260
REMARK  102  A    between atoms: _263  and  _265
REMARK  103  A    between atoms: _265  and  _266
REMARK  104  A    between atoms: _265  and  _268
REMARK  105  A    between atoms: _271  and  _273
REMARK  106  A    between atoms: _273  and  _274
REMARK  107  A    between atoms: _273  and  _276
REMARK  108  A    between atoms: _276  and  _277
REMARK  109  A    between atoms: _282  and  _284
REMARK  110  A    between atoms: _284  and  _285
REMARK  111  A    between atoms: _284  and  _287
REMARK  112  A    between atoms: _287  and  _288
REMARK  113  A    between atoms: _291  and  _293
REMARK  114  A    between atoms: _293  and  _294
REMARK  115  A    between atoms: _293  and  _296
REMARK  116  A    between atoms: _296  and  _297
REMARK  117  A    between atoms: _299  and  _301
REMARK  118  A    between atoms: _301  and  _302
REMARK  119  A    between atoms: _301  and  _304
REMARK  120  A    between atoms: _304  and  _305
REMARK  121  A    between atoms: _310  and  _312
REMARK  122  A    between atoms: _312  and  _313
REMARK  123  A    between atoms: _312  and  _315
REMARK  124  A    between atoms: _318  and  _320
REMARK  125  A    between atoms: _320  and  _321
REMARK  126  A    between atoms: _320  and  _323
REMARK  127  A    between atoms: _323  and  _324
REMARK  128  A    between atoms: _329  and  _331
REMARK  129  A    between atoms: _331  and  _332
REMARK  130  A    between atoms: _331  and  _334
REMARK  131  A    between atoms: _334  and  _335
REMARK  132  A    between atoms: _335  and  _336
REMARK  133  A    between atoms: _336  and  _337
REMARK  134  A    between atoms: _346  and  _348
REMARK  135  A    between atoms: _348  and  _349
REMARK  136  A    between atoms: _348  and  _351
REMARK  137  A    between atoms: _351  and  _352
REMARK  138  A    between atoms: _352  and  _353
REMARK  139  A    between atoms: _356  and  _358
REMARK  140  A    between atoms: _358  and  _359
REMARK  141  A    between atoms: _358  and  _361
REMARK  142  A    between atoms: _361  and  _362
REMARK  143  A    between atoms: _368  and  _370
REMARK  144  A    between atoms: _370  and  _371
REMARK  145  A    between atoms: _370  and  _373
REMARK  146  A    between atoms: _373  and  _374
REMARK  147  A    between atoms: _374  and  _375
REMARK  148  A    between atoms: _375  and  _376
REMARK  149  A    between atoms: _385  and  _387
REMARK  150  A    between atoms: _387  and  _388
REMARK  151  A    between atoms: _387  and  _390
REMARK  152  A    between atoms: _390  and  _391
REMARK  153  A    between atoms: _391  and  _392
REMARK  154  A    between atoms: _392  and  _393
REMARK  155  A    between atoms: _402  and  _404
REMARK  156  A    between atoms: _404  and  _405
REMARK  157  A    between atoms: _404  and  _407
REMARK  158  A    between atoms: _407  and  _408
REMARK  159  A    between atoms: _413  and  _415
REMARK  160  A    between atoms: _415  and  _416
REMARK  161  A    between atoms: _415  and  _418
REMARK  162  A    between atoms: _418  and  _419
REMARK  163  A    between atoms: _421  and  _423
REMARK  164  A    between atoms: _423  and  _424
REMARK  165  A    between atoms: _423  and  _426
REMARK  166  A    between atoms: _426  and  _427
REMARK  167  A    between atoms: _430  and  _432
REMARK  168  A    between atoms: _432  and  _433
REMARK  169  A    between atoms: _432  and  _435
REMARK  170  A    between atoms: _435  and  _436
REMARK  171  A    between atoms: _439  and  _441
REMARK  172  A    between atoms: _441  and  _442
REMARK  173  A    between atoms: _441  and  _444
REMARK  174  A    between atoms: _447  and  _449
REMARK  175  A    between atoms: _449  and  _450
REMARK  176  A    between atoms: _452  and  _454
REMARK  177  A    between atoms: _454  and  _455
REMARK  178  A    between atoms: _454  and  _457
REMARK  179  A    between atoms: _457  and  _458
REMARK  180  A    between atoms: _461  and  _463
REMARK  181  A    between atoms: _463  and  _464
REMARK  182  A    between atoms: _466  and  _468
REMARK  183  A    between atoms: _468  and  _469
REMARK  184  A    between atoms: _468  and  _471
REMARK  185  A    between atoms: _471  and  _472
REMARK  186  A    between atoms: _475  and  _477
REMARK  187  A    between atoms: _477  and  _478
REMARK  188  A    between atoms: _477  and  _480
REMARK  189  A    between atoms: _480  and  _481
REMARK  190  A    between atoms: _486  and  _487
REMARK  191  A    between atoms: _489  and  _491
REMARK  192  A    between atoms: _491  and  _492
REMARK  193  A    between atoms: _491  and  _494
REMARK  194  A    between atoms: _494  and  _495
REMARK  195  A    between atoms: _498  and  _500
REMARK  196  A    between atoms: _500  and  _501
REMARK  197  A    between atoms: _500  and  _503
REMARK  198  A    between atoms: _503  and  _504
REMARK  199  A    between atoms: _507  and  _509
REMARK  200  A    between atoms: _509  and  _510
REMARK  201  A    between atoms: _509  and  _512
REMARK  202  A    between atoms: _512  and  _513
REMARK  203  A    between atoms: _518  and  _520
REMARK  204  A    between atoms: _520  and  _521
REMARK  205  A    between atoms: _524  and  _526
REMARK  206  A    between atoms: _526  and  _527
REMARK  207  A    between atoms: _526  and  _529
REMARK  208  A    between atoms: _532  and  _534
REMARK  209  A    between atoms: _534  and  _535
REMARK  210  A    between atoms: _538  and  _540
REMARK  211  A    between atoms: _540  and  _541
REMARK  212  A    between atoms: _540  and  _543
REMARK  213  A    between atoms: _543  and  _544
REMARK  214  A    between atoms: _547  and  _549
REMARK  215  A    between atoms: _549  and  _550
REMARK  216  A    between atoms: _549  and  _552
REMARK  217  A    between atoms: _552  and  _553
REMARK  218  A    between atoms: _553  and  _554
REMARK  219  A    between atoms: _554  and  _555
REMARK  220  A    between atoms: _564  and  _566
REMARK  221  A    between atoms: _566  and  _567
REMARK  222  A    between atoms: _566  and  _569
REMARK  223  A    between atoms: _569  and  _570
REMARK  224  A    between atoms: _573  and  _575
REMARK  225  A    between atoms: _575  and  _576
REMARK  226  A    between atoms: _579  and  _581
REMARK  227  A    between atoms: _581  and  _582
REMARK  228  A    between atoms: _581  and  _584
REMARK  229  A    between atoms: _586  and  _588
REMARK  230  A    between atoms: _588  and  _589
REMARK  231  A    between atoms: _592  and  _594
REMARK  232  A    between atoms: _594  and  _595
REMARK  233  A    between atoms: _594  and  _597
REMARK  234  A    between atoms: _597  and  _598
REMARK  235  A    between atoms: _598  and  _599
REMARK  236  A    between atoms: _602  and  _604
REMARK  237  A    between atoms: _604  and  _605
REMARK  238  A    between atoms: _604  and  _607
REMARK  239  A    between atoms: _607  and  _608
REMARK                            x       y       z     vdW  Elec       q    Type
REMARK                         _______ _______ _______ _____ _____    ______ ____
ROOT
ATOM      1  CB  GLN A   1      39.054  30.402  -4.628  0.00  0.00    +0.035 C 
ENDROOT
BRANCH   1   2
ATOM      2  CA  GLN A   1      40.072  29.332  -5.124  0.00  0.00    +0.134 C 
BRANCH   2   3
ATOM      3  N   GLN A   1      41.481  29.721  -4.874  0.00  0.00    -0.239 NA
ATOM      4  H   GLN A   1      41.966  30.384  -5.512  0.00  0.00    +0.142 HD
ENDBRANCH   2   3
BRANCH   2   5
ATOM      5  C   GLN A   1      39.891  29.118  -6.617  0.00  0.00    +0.224 C 
ATOM      6  O   GLN A   1      40.467  29.844  -7.429  0.00  0.00    -0.287 OA
ENDBRANCH   2   5
ENDBRANCH   1   2
BRANCH   1   7
ATOM      7  CG  GLN A   1      37.549  29.968  -4.728  0.00  0.00    +0.087 C 
BRANCH   7   8
ATOM      8  CD  GLN A   1      36.876  30.216  -6.143  0.00  0.00    +0.219 C 
ATOM      9  NE2 GLN A   1      35.962  29.341  -6.518  0.00  0.00    -0.329 N 
ATOM     10 HE21 GLN A   1      35.748  28.522  -5.914  0.00  0.00    +0.145 HD
ATOM     11 HE22 GLN A   1      35.456  29.471  -7.417  0.00  0.00    +0.145 HD
ATOM     12  OE1 GLN A   1      37.152  31.206  -6.848  0.00  0.00    -0.275 OA
ENDBRANCH   7   8
ENDBRANCH   1   7
TORSDOF 5
REMARK  Name = ../refined-set-2016/3n86/3n86_pocket.pdb
REMARK  239 active torsions:
REMARK  status: ('A' for Active; 'I' for Inactive)
REMARK    1  A    between atoms: _1  and  _3
REMARK    2  A    between atoms: _3  and  _4
REMARK    3  A    between atoms: _3  and  _6
REMARK    4  A    between atoms: _6  and  _7
REMARK    5  A    between atoms: _12  and  _14
REMARK    6  A    between atoms: _14  and  _15
REMARK    7  A    between atoms: _18  and  _19
REMARK    8  A    between atoms: _24  and  _26
REMARK    9  A    between atoms: _26  and  _27
REMARK   10  A    between atoms: _26  and  _29
REMARK   11  A    between atoms: _29  and  _30
REMARK   12  A    between atoms: _35  and  _37
REMARK   13  A    between atoms: _37  and  _38
REMARK   14  A    between atoms: _37  and  _40
REMARK   15  A    between atoms: _40  and  _41
REMARK   16  A    between atoms: _44  and  _46
REMARK   17  A    between atoms: _46  and  _47
REMARK   18  A    between atoms: _49  and  _51
REMARK   19  A    between atoms: _51  and  _52
REMARK   20  A    between atoms: _51  and  _54
REMARK   21  A    between atoms: _54  and  _55
REMARK   22  A    between atoms: _55  and  _56
REMARK   23  A    between atoms: _56  and  _57
REMARK   24  A    between atoms: _66  and  _68
REMARK   25  A    between atoms: _68  and  _69
REMARK   26  A    between atoms: _68  and  _71
REMARK   27  A    between atoms: _71  and  _72
REMARK   28  A    between atoms: _75  and  _77
REMARK   29  A    between atoms: _77  and  _78
REMARK   30  A    between atoms: _80  and  _82
REMARK   31  A    between atoms: _82  and  _83
REMARK   32  A    between atoms: _82  and  _85
REMARK   33  A    between atoms: _85  and  _86
REMARK   34  A    between atoms: _86  and  _87
REMARK   35  A    between atoms: _87  and  _88
REMARK   36  A    between atoms: _97  and  _99
REMARK   37  A    between atoms: _99  and  _100
REMARK   38  A    between atoms: _99  and  _102
REMARK   39  A    between atoms: _102  and  _103
REMARK   40  A    between atoms: _103  and  _104
REMARK   41  A    between atoms: _104  and  _105
REMARK   42  A    between atoms: _114  and  _116
REMARK   43  A    between atoms: _116  and  _117
REMARK   44  A    between atoms: _116  and  _119
REMARK   45  A    between atoms: _119  and  _120
REMARK   46  A    between atoms: _120  and  _121
REMARK   47  A    between atoms: _125  and  _126
REMARK   48  A    between atoms: _131  and  _133
REMARK   49  A    between atoms: _133  and  _134
REMARK   50  A    between atoms: _133  and  _136
REMARK   51  A    between atoms: _139  and  _141
REMARK   52  A    between atoms: _141  and  _142
REMARK   53  A    between atoms: _141  and  _144
REMARK   54  A    between atoms: _144  and  _145
REMARK   55  A    between atoms: _150  and  _151
REMARK   56  A    between atoms: _153  and  _155
REMARK   57  A    between atoms: _155  and  _156
REMARK   58  A    between atoms: _158  and  _160
REMARK   59  A    between atoms: _160  and  _161
REMARK   60  A    between atoms: _160  and  _163
REMARK   61  A    between atoms: _163  and  _164
REMARK   62  A    between atoms: _164  and  _165
REMARK   63  A    between atoms: _170  and  _172
REMARK   64  A    between atoms: _172  and  _173
REMARK   65  A    between atoms: _172  and  _175
REMARK   66  A    between atoms: _175  and  _176
REMARK   67  A    between atoms: _179  and  _181
REMARK   68  A    between atoms: _181  and  _182
REMARK   69  A    between atoms: _181  and  _184
REMARK   70  A    between atoms: _184  and  _185
REMARK   71  A    between atoms: _188  and  _190
REMARK   72  A    between atoms: _190  and  _191
REMARK   73  A    between atoms: _190  and  _193
REMARK   74  A    between atoms: _193  and  _194
REMARK   75  A    between atoms: _199  and  _201
REMARK   76  A    between atoms: _201  and  _202
REMARK   77  A    between atoms: _205  and  _207
REMARK   78  A    between atoms: _207  and  _208
REMARK   79  A    between atoms: _210  and  _212
REMARK   80  A    between atoms: _212  and  _213
REMARK   81  A    between atoms: _215  and  _217
REMARK   82  A    between atoms: _217  and  _218
REMARK   83  A    between atoms: _217  and  _220
REMARK   84  A    between atoms: _220  and  _221
REMARK   85  A    between atoms: _224  and  _226
REMARK   86  A    between atoms: _226  and  _227
REMARK   87  A    between atoms: _226  and  _229
REMARK   88  A    between atoms: _229  and  _230
REMARK   89  A    between atoms: _233  and  _235
REMARK   90  A    between atoms: _235  and  _236
REMARK   91  A    between atoms: _235  and  _238
REMARK   92  A    between atoms: _238  and  _239
REMARK   93  A    between atoms: _244  and  _246
REMARK   94  A    between atoms: _246  and  _247
REMARK   95  A    between atoms: _246  and  _249
REMARK   96  A    between atoms: _249  and  _250
REMARK   97  A    between atoms: _253  and  _255
REMARK   98  A    between atoms: _255  and  _256
REMARK   99  A    between atoms: _255  and  _258
REMARK  100  A    between atoms: _258  and  _259
REMARK  101  A    between atoms: _259  and  _260
REMARK  102  A    between atoms: _263  and  _265
REMARK  103  A    between atoms: _265  and  _266
REMARK  104  A    between atoms: _265  and  _268
REMARK  105  A    between atoms: _271  and  _273
REMARK  106  A    between atoms: _273  and  _274
REMARK  107  A    between atoms: _273  and  _276
REMARK  108  A    between atoms: _276  and  _277
REMARK  109  A    between atoms: _282  and  _284
REMARK  110  A    between atoms: _284  and  _285
REMARK  111  A    between atoms: _284  and  _287
REMARK  112  A    between atoms: _287  and  _288
REMARK  113  A    between atoms: _291  and  _293
REMARK  114  A    between atoms: _293  and  _294
REMARK  115  A    between atoms: _293  and  _296
REMARK  116  A    between atoms: _296  and  _297
REMARK  117  A    between atoms: _299  and  _301
REMARK  118  A    between atoms: _301  and  _302
REMARK  119  A    between atoms: _301  and  _304
REMARK  120  A    between atoms: _304  and  _305
REMARK  121  A    between atoms: _310  and  _312
REMARK  122  A    between atoms: _312  and  _313
REMARK  123  A    between atoms: _312  and  _315
REMARK  124  A    between atoms: _318  and  _320
REMARK  125  A    between atoms: _320  and  _321
REMARK  126  A    between atoms: _320  and  _323
REMARK  127  A    between atoms: _323  and  _324
REMARK  128  A    between atoms: _329  and  _331
REMARK  129  A    between atoms: _331  and  _332
REMARK  130  A    between atoms: _331  and  _334
REMARK  131  A    between atoms: _334  and  _335
REMARK  132  A    between atoms: _335  and  _336
REMARK  133  A    between atoms: _336  and  _337
REMARK  134  A    between atoms: _346  and  _348
REMARK  135  A    between atoms: _348  and  _349
REMARK  136  A    between atoms: _348  and  _351
REMARK  137  A    between atoms: _351  and  _352
REMARK  138  A    between atoms: _352  and  _353
REMARK  139  A    between atoms: _356  and  _358
REMARK  140  A    between atoms: _358  and  _359
REMARK  141  A    between atoms: _358  and  _361
REMARK  142  A    between atoms: _361  and  _362
REMARK  143  A    between atoms: _368  and  _370
REMARK  144  A    between atoms: _370  and  _371
REMARK  145  A    between atoms: _370  and  _373
REMARK  146  A    between atoms: _373  and  _374
REMARK  147  A    between atoms: _374  and  _375
REMARK  148  A    between atoms: _375  and  _376
REMARK  149  A    between atoms: _385  and  _387
REMARK  150  A    between atoms: _387  and  _388
REMARK  151  A    between atoms: _387  and  _390
REMARK  152  A    between atoms: _390  and  _391
REMARK  153  A    between atoms: _391  and  _392
REMARK  154  A    between atoms: _392  and  _393
REMARK  155  A    between atoms: _402  and  _404
REMARK  156  A    between atoms: _404  and  _405
REMARK  157  A    between atoms: _404  and  _407
REMARK  158  A    between atoms: _407  and  _408
REMARK  159  A    between atoms: _413  and  _415
REMARK  160  A    between atoms: _415  and  _416
REMARK  161  A    between atoms: _415  and  _418
REMARK  162  A    between atoms: _418  and  _419
REMARK  163  A    between atoms: _421  and  _423
REMARK  164  A    between atoms: _423  and  _424
REMARK  165  A    between atoms: _423  and  _426
REMARK  166  A    between atoms: _426  and  _427
REMARK  167  A    between atoms: _430  and  _432
REMARK  168  A    between atoms: _432  and  _433
REMARK  169  A    between atoms: _432  and  _435
REMARK  170  A    between atoms: _435  and  _436
REMARK  171  A    between atoms: _439  and  _441
REMARK  172  A    between atoms: _441  and  _442
REMARK  173  A    between atoms: _441  and  _444
REMARK  174  A    between atoms: _447  and  _449
REMARK  175  A    between atoms: _449  and  _450
REMARK  176  A    between atoms: _452  and  _454
REMARK  177  A    between atoms: _454  and  _455
REMARK  178  A    between atoms: _454  and  _457
REMARK  179  A    between atoms: _457  and  _458
REMARK  180  A    between atoms: _461  and  _463
REMARK  181  A    between atoms: _463  and  _464
REMARK  182  A    between atoms: _466  and  _468
REMARK  183  A    between atoms: _468  and  _469
REMARK  184  A    between atoms: _468  and  _471
REMARK  185  A    between atoms: _471  and  _472
REMARK  186  A    between atoms: _475  and  _477
REMARK  187  A    between atoms: _477  and  _478
REMARK  188  A    between atoms: _477  and  _480
REMARK  189  A    between atoms: _480  and  _481
REMARK  190  A    between atoms: _486  and  _487
REMARK  191  A    between atoms: _489  and  _491
REMARK  192  A    between atoms: _491  and  _492
REMARK  193  A    between atoms: _491  and  _494
REMARK  194  A    between atoms: _494  and  _495
REMARK  195  A    between atoms: _498  and  _500
REMARK  196  A    between atoms: _500  and  _501
REMARK  197  A    between atoms: _500  and  _503
REMARK  198  A    between atoms: _503  and  _504
REMARK  199  A    between atoms: _507  and  _509
REMARK  200  A    between atoms: _509  and  _510
REMARK  201  A    between atoms: _509  and  _512
REMARK  202  A    between atoms: _512  and  _513
REMARK  203  A    between atoms: _518  and  _520
REMARK  204  A    between atoms: _520  and  _521
REMARK  205  A    between atoms: _524  and  _526
REMARK  206  A    between atoms: _526  and  _527
REMARK  207  A    between atoms: _526  and  _529
REMARK  208  A    between atoms: _532  and  _534
REMARK  209  A    between atoms: _534  and  _535
REMARK  210  A    between atoms: _538  and  _540
REMARK  211  A    between atoms: _540  and  _541
REMARK  212  A    between atoms: _540  and  _543
REMARK  213  A    between atoms: _543  and  _544
REMARK  214  A    between atoms: _547  and  _549
REMARK  215  A    between atoms: _549  and  _550
REMARK  216  A    between atoms: _549  and  _552
REMARK  217  A    between atoms: _552  and  _553
REMARK  218  A    between atoms: _553  and  _554
REMARK  219  A    between atoms: _554  and  _555
REMARK  220  A    between atoms: _564  and  _566
REMARK  221  A    between atoms: _566  and  _567
REMARK  222  A    between atoms: _566  and  _569
REMARK  223  A    between atoms: _569  and  _570
REMARK  224  A    between atoms: _573  and  _575
REMARK  225  A    between atoms: _575  and  _576
REMARK  226  A    between atoms: _579  and  _581
REMARK  227  A    between atoms: _581  and  _582
REMARK  228  A    between atoms: _581  and  _584
REMARK  229  A    between atoms: _586  and  _588
REMARK  230  A    between atoms: _588  and  _589
REMARK  231  A    between atoms: _592  and  _594
REMARK  232  A    between atoms: _594  and  _595
REMARK  233  A    between atoms: _594  and  _597
REMARK  234  A    between atoms: _597  and  _598
REMARK  235  A    between atoms: _598  and  _599
REMARK  236  A    between atoms: _602  and  _604
REMARK  237  A    between atoms: _604  and  _605
REMARK  238  A    between atoms: _604  and  _607
REMARK  239  A    between atoms: _607  and  _608
REMARK                            x       y       z     vdW  Elec       q    Type
REMARK                         _______ _______ _______ _____ _____    ______ ____
ROOT
ATOM      1  CA  ASP A   1      35.546  26.850 -10.007  0.00  0.00    +0.144 C 
ENDROOT
BRANCH   1   2
ATOM      2  N   ASP A   1      36.750  27.548  -9.571  0.00  0.00    -0.239 NA
ATOM      3  H   ASP A   1      37.077  28.365 -10.126  0.00  0.00    +0.142 HD
ENDBRANCH   1   2
BRANCH   1   4
ATOM      4  C   ASP A   1      35.835  25.690 -10.915  0.00  0.00    +0.225 C 
ATOM      5  O   ASP A   1      34.904  24.942 -11.224  0.00  0.00    -0.287 OA
ENDBRANCH   1   4
BRANCH   1   6
ATOM      6  CB  ASP A   1      34.649  27.825 -10.780  0.00  0.00    +0.139 C 
BRANCH   6   7
ATOM      7  CG  ASP A   1      34.008  28.909  -9.870  0.00  0.00    +0.367 C 
ATOM      8  OD2 ASP A   1      34.072  28.806  -8.631  0.00  0.00    -0.246 OA
ATOM      9  OD1 ASP A   1      33.426  29.871 -10.436  0.00  0.00    -0.246 OA
ENDBRANCH   6   7
ENDBRANCH   1   6
TORSDOF 4
REMARK  Name = ../refined-set-2016/3n86/3n86_pocket.pdb
REMARK  239 active torsions:
REMARK  status: ('A' for Active; 'I' for Inactive)
REMARK    1  A    between atoms: _1  and  _3
REMARK    2  A    between atoms: _3  and  _4
REMARK    3  A    between atoms: _3  and  _6
REMARK    4  A    between atoms: _6  and  _7
REMARK    5  A    between atoms: _12  and  _14
REMARK    6  A    between atoms: _14  and  _15
REMARK    7  A    between atoms: _18  and  _19
REMARK    8  A    between atoms: _24  and  _26
REMARK    9  A    between atoms: _26  and  _27
REMARK   10  A    between atoms: _26  and  _29
REMARK   11  A    between atoms: _29  and  _30
REMARK   12  A    between atoms: _35  and  _37
REMARK   13  A    between atoms: _37  and  _38
REMARK   14  A    between atoms: _37  and  _40
REMARK   15  A    between atoms: _40  and  _41
REMARK   16  A    between atoms: _44  and  _46
REMARK   17  A    between atoms: _46  and  _47
REMARK   18  A    between atoms: _49  and  _51
REMARK   19  A    between atoms: _51  and  _52
REMARK   20  A    between atoms: _51  and  _54
REMARK   21  A    between atoms: _54  and  _55
REMARK   22  A    between atoms: _55  and  _56
REMARK   23  A    between atoms: _56  and  _57
REMARK   24  A    between atoms: _66  and  _68
REMARK   25  A    between atoms: _68  and  _69
REMARK   26  A    between atoms: _68  and  _71
REMARK   27  A    between atoms: _71  and  _72
REMARK   28  A    between atoms: _75  and  _77
REMARK   29  A    between atoms: _77  and  _78
REMARK   30  A    between atoms: _80  and  _82
REMARK   31  A    between atoms: _82  and  _83
REMARK   32  A    between atoms: _82  and  _85
REMARK   33  A    between atoms: _85  and  _86
REMARK   34  A    between atoms: _86  and  _87
REMARK   35  A    between atoms: _87  and  _88
REMARK   36  A    between atoms: _97  and  _99
REMARK   37  A    between atoms: _99  and  _100
REMARK   38  A    between atoms: _99  and  _102
REMARK   39  A    between atoms: _102  and  _103
REMARK   40  A    between atoms: _103  and  _104
REMARK   41  A    between atoms: _104  and  _105
REMARK   42  A    between atoms: _114  and  _116
REMARK   43  A    between atoms: _116  and  _117
REMARK   44  A    between atoms: _116  and  _119
REMARK   45  A    between atoms: _119  and  _120
REMARK   46  A    between atoms: _120  and  _121
REMARK   47  A    between atoms: _125  and  _126
REMARK   48  A    between atoms: _131  and  _133
REMARK   49  A    between atoms: _133  and  _134
REMARK   50  A    between atoms: _133  and  _136
REMARK   51  A    between atoms: _139  and  _141
REMARK   52  A    between atoms: _141  and  _142
REMARK   53  A    between atoms: _141  and  _144
REMARK   54  A    between atoms: _144  and  _145
REMARK   55  A    between atoms: _150  and  _151
REMARK   56  A    between atoms: _153  and  _155
REMARK   57  A    between atoms: _155  and  _156
REMARK   58  A    between atoms: _158  and  _160
REMARK   59  A    between atoms: _160  and  _161
REMARK   60  A    between atoms: _160  and  _163
REMARK   61  A    between atoms: _163  and  _164
REMARK   62  A    between atoms: _164  and  _165
REMARK   63  A    between atoms: _170  and  _172
REMARK   64  A    between atoms: _172  and  _173
REMARK   65  A    between atoms: _172  and  _175
REMARK   66  A    between atoms: _175  and  _176
REMARK   67  A    between atoms: _179  and  _181
REMARK   68  A    between atoms: _181  and  _182
REMARK   69  A    between atoms: _181  and  _184
REMARK   70  A    between atoms: _184  and  _185
REMARK   71  A    between atoms: _188  and  _190
REMARK   72  A    between atoms: _190  and  _191
REMARK   73  A    between atoms: _190  and  _193
REMARK   74  A    between atoms: _193  and  _194
REMARK   75  A    between atoms: _199  and  _201
REMARK   76  A    between atoms: _201  and  _202
REMARK   77  A    between atoms: _205  and  _207
REMARK   78  A    between atoms: _207  and  _208
REMARK   79  A    between atoms: _210  and  _212
REMARK   80  A    between atoms: _212  and  _213
REMARK   81  A    between atoms: _215  and  _217
REMARK   82  A    between atoms: _217  and  _218
REMARK   83  A    between atoms: _217  and  _220
REMARK   84  A    between atoms: _220  and  _221
REMARK   85  A    between atoms: _224  and  _226
REMARK   86  A    between atoms: _226  and  _227
REMARK   87  A    between atoms: _226  and  _229
REMARK   88  A    between atoms: _229  and  _230
REMARK   89  A    between atoms: _233  and  _235
REMARK   90  A    between atoms: _235  and  _236
REMARK   91  A    between atoms: _235  and  _238
REMARK   92  A    between atoms: _238  and  _239
REMARK   93  A    between atoms: _244  and  _246
REMARK   94  A    between atoms: _246  and  _247
REMARK   95  A    between atoms: _246  and  _249
REMARK   96  A    between atoms: _249  and  _250
REMARK   97  A    between atoms: _253  and  _255
REMARK   98  A    between atoms: _255  and  _256
REMARK   99  A    between atoms: _255  and  _258
REMARK  100  A    between atoms: _258  and  _259
REMARK  101  A    between atoms: _259  and  _260
REMARK  102  A    between atoms: _263  and  _265
REMARK  103  A    between atoms: _265  and  _266
REMARK  104  A    between atoms: _265  and  _268
REMARK  105  A    between atoms: _271  and  _273
REMARK  106  A    between atoms: _273  and  _274
REMARK  107  A    between atoms: _273  and  _276
REMARK  108  A    between atoms: _276  and  _277
REMARK  109  A    between atoms: _282  and  _284
REMARK  110  A    between atoms: _284  and  _285
REMARK  111  A    between atoms: _284  and  _287
REMARK  112  A    between atoms: _287  and  _288
REMARK  113  A    between atoms: _291  and  _293
REMARK  114  A    between atoms: _293  and  _294
REMARK  115  A    between atoms: _293  and  _296
REMARK  116  A    between atoms: _296  and  _297
REMARK  117  A    between atoms: _299  and  _301
REMARK  118  A    between atoms: _301  and  _302
REMARK  119  A    between atoms: _301  and  _304
REMARK  120  A    between atoms: _304  and  _305
REMARK  121  A    between atoms: _310  and  _312
REMARK  122  A    between atoms: _312  and  _313
REMARK  123  A    between atoms: _312  and  _315
REMARK  124  A    between atoms: _318  and  _320
REMARK  125  A    between atoms: _320  and  _321
REMARK  126  A    between atoms: _320  and  _323
REMARK  127  A    between atoms: _323  and  _324
REMARK  128  A    between atoms: _329  and  _331
REMARK  129  A    between atoms: _331  and  _332
REMARK  130  A    between atoms: _331  and  _334
REMARK  131  A    between atoms: _334  and  _335
REMARK  132  A    between atoms: _335  and  _336
REMARK  133  A    between atoms: _336  and  _337
REMARK  134  A    between atoms: _346  and  _348
REMARK  135  A    between atoms: _348  and  _349
REMARK  136  A    between atoms: _348  and  _351
REMARK  137  A    between atoms: _351  and  _352
REMARK  138  A    between atoms: _352  and  _353
REMARK  139  A    between atoms: _356  and  _358
REMARK  140  A    between atoms: _358  and  _359
REMARK  141  A    between atoms: _358  and  _361
REMARK  142  A    between atoms: _361  and  _362
REMARK  143  A    between atoms: _368  and  _370
REMARK  144  A    between atoms: _370  and  _371
REMARK  145  A    between atoms: _370  and  _373
REMARK  146  A    between atoms: _373  and  _374
REMARK  147  A    between atoms: _374  and  _375
REMARK  148  A    between atoms: _375  and  _376
REMARK  149  A    between atoms: _385  and  _387
REMARK  150  A    between atoms: _387  and  _388
REMARK  151  A    between atoms: _387  and  _390
REMARK  152  A    between atoms: _390  and  _391
REMARK  153  A    between atoms: _391  and  _392
REMARK  154  A    between atoms: _392  and  _393
REMARK  155  A    between atoms: _402  and  _404
REMARK  156  A    between atoms: _404  and  _405
REMARK  157  A    between atoms: _404  and  _407
REMARK  158  A    between atoms: _407  and  _408
REMARK  159  A    between atoms: _413  and  _415
REMARK  160  A    between atoms: _415  and  _416
REMARK  161  A    between atoms: _415  and  _418
REMARK  162  A    between atoms: _418  and  _419
REMARK  163  A    between atoms: _421  and  _423
REMARK  164  A    between atoms: _423  and  _424
REMARK  165  A    between atoms: _423  and  _426
REMARK  166  A    between atoms: _426  and  _427
REMARK  167  A    between atoms: _430  and  _432
REMARK  168  A    between atoms: _432  and  _433
REMARK  169  A    between atoms: _432  and  _435
REMARK  170  A    between atoms: _435  and  _436
REMARK  171  A    between atoms: _439  and  _441
REMARK  172  A    between atoms: _441  and  _442
REMARK  173  A    between atoms: _441  and  _444
REMARK  174  A    between atoms: _447  and  _449
REMARK  175  A    between atoms: _449  and  _450
REMARK  176  A    between atoms: _452  and  _454
REMARK  177  A    between atoms: _454  and  _455
REMARK  178  A    between atoms: _454  and  _457
REMARK  179  A    between atoms: _457  and  _458
REMARK  180  A    between atoms: _461  and  _463
REMARK  181  A    between atoms: _463  and  _464
REMARK  182  A    between atoms: _466  and  _468
REMARK  183  A    between atoms: _468  and  _469
REMARK  184  A    between atoms: _468  and  _471
REMARK  185  A    between atoms: _471  and  _472
REMARK  186  A    between atoms: _475  and  _477
REMARK  187  A    between atoms: _477  and  _478
REMARK  188  A    between atoms: _477  and  _480
REMARK  189  A    between atoms: _480  and  _481
REMARK  190  A    between atoms: _486  and  _487
REMARK  191  A    between atoms: _489  and  _491
REMARK  192  A    between atoms: _491  and  _492
REMARK  193  A    between atoms: _491  and  _494
REMARK  194  A    between atoms: _494  and  _495
REMARK  195  A    between atoms: _498  and  _500
REMARK  196  A    between atoms: _500  and  _501
REMARK  197  A    between atoms: _500  and  _503
REMARK  198  A    between atoms: _503  and  _504
REMARK  199  A    between atoms: _507  and  _509
REMARK  200  A    between atoms: _509  and  _510
REMARK  201  A    between atoms: _509  and  _512
REMARK  202  A    between atoms: _512  and  _513
REMARK  203  A    between atoms: _518  and  _520
REMARK  204  A    between atoms: _520  and  _521
REMARK  205  A    between atoms: _524  and  _526
REMARK  206  A    between atoms: _526  and  _527
REMARK  207  A    between atoms: _526  and  _529
REMARK  208  A    between atoms: _532  and  _534
REMARK  209  A    between atoms: _534  and  _535
REMARK  210  A    between atoms: _538  and  _540
REMARK  211  A    between atoms: _540  and  _541
REMARK  212  A    between atoms: _540  and  _543
REMARK  213  A    between atoms: _543  and  _544
REMARK  214  A    between atoms: _547  and  _549
REMARK  215  A    between atoms: _549  and  _550
REMARK  216  A    between atoms: _549  and  _552
REMARK  217  A    between atoms: _552  and  _553
REMARK  218  A    between atoms: _553  and  _554
REMARK  219  A    between atoms: _554  and  _555
REMARK  220  A    between atoms: _564  and  _566
REMARK  221  A    between atoms: _566  and  _567
REMARK  222  A    between atoms: _566  and  _569
REMARK  223  A    between atoms: _569  and  _570
REMARK  224  A    between atoms: _573  and  _575
REMARK  225  A    between atoms: _575  and  _576
REMARK  226  A    between atoms: _579  and  _581
REMARK  227  A    between atoms: _581  and  _582
REMARK  228  A    between atoms: _581  and  _584
REMARK  229  A    between atoms: _586  and  _588
REMARK  230  A    between atoms: _588  and  _589
REMARK  231  A    between atoms: _592  and  _594
REMARK  232  A    between atoms: _594  and  _595
REMARK  233  A    between atoms: _594  and  _597
REMARK  234  A    between atoms: _597  and  _598
REMARK  235  A    between atoms: _598  and  _599
REMARK  236  A    between atoms: _602  and  _604
REMARK  237  A    between atoms: _604  and  _605
REMARK  238  A    between atoms: _604  and  _607
REMARK  239  A    between atoms: _607  and  _608
REMARK                            x       y       z     vdW  Elec       q    Type
REMARK                         _______ _______ _______ _____ _____    ______ ____
ROOT
ATOM      1  C   GLY A   5      30.529  19.512  -4.458  0.00  0.00    +0.243 C 
ATOM      2  O   GLY A   5      29.974  18.419  -4.394  0.00  0.00    -0.273 OA
ATOM      3  N   LEU A   6      31.803  19.667  -4.854  0.00  0.00    -0.297 N 
ATOM      4  H   LEU A   6      32.219  20.620  -4.837  0.00  0.00    +0.150 HD
ENDROOT
BRANCH   3   5
ATOM      5  CA  LEU A   6      32.633  18.540  -5.311  0.00  0.00    +0.149 C 
BRANCH   5   6
ATOM      6  C   LEU A   6      32.882  17.584  -4.139  0.00  0.00    +0.241 C 
ATOM      7  N   THR A   7      32.767  18.074  -2.899  0.00  0.00    -0.295 N 
ATOM      8  H   THR A   7      32.614  19.092  -2.753  0.00  0.00    +0.150 HD
ATOM      9  O   LEU A   6      33.221  16.407  -4.332  0.00  0.00    -0.273 OA
BRANCH   7  10
ATOM     10  CA  THR A   7      32.858  17.168  -1.743  0.00  0.00    +0.176 C 
BRANCH  10  11
ATOM     11  C   THR A   7      32.079  15.875  -1.883  0.00  0.00    +0.243 C 
ATOM     12  O   THR A   7      32.521  14.790  -1.416  0.00  0.00    -0.273 OA
ATOM     13  N   HIS A   8      30.852  16.023  -2.387  0.00  0.00    -0.297 N 
ATOM     14  H   HIS A   8      30.580  16.941  -2.793  0.00  0.00    +0.150 HD
BRANCH  13  15
ATOM     15  CA  HIS A   8      29.878  14.930  -2.384  0.00  0.00    +0.155 C 
BRANCH  15  16
ATOM     16  C   HIS A   8      29.844  14.181  -3.714  0.00  0.00    +0.241 C 
ATOM     17  O   HIS A   8      29.079  13.218  -3.866  0.00  0.00    -0.273 OA
ATOM     18  N   THR A   9      30.660  14.598  -4.680  0.00  0.00    -0.296 N 
ATOM     19  H   THR A   9      31.429  15.260  -4.453  0.00  0.00    +0.150 HD
BRANCH  18  20
ATOM     20  CA  THR A   9      30.485  14.132  -6.065  0.00  0.00    +0.164 C 
BRANCH  20  21
ATOM     21  CB  THR A   9      29.838  15.247  -6.995  0.00  0.00    +0.136 C 
ATOM     22  CG2 THR A   9      28.419  15.701  -6.464  0.00  0.00    +0.034 C 
BRANCH  21  23
ATOM     23  OG1 THR A   9      30.738  16.372  -7.150  0.00  0.00    -0.382 OA
ATOM     24  HG1 THR A   9      30.316  17.053  -7.732  0.00  0.00    +0.210 HD
ENDBRANCH  21  23
ENDBRANCH  20  21
BRANCH  20  25
ATOM     25  C   THR A   9      31.785  13.713  -6.723  0.00  0.00    +0.229 C 
ATOM     26  O   THR A   9      31.767  12.932  -7.667  0.00  0.00    -0.286 OA
ENDBRANCH  20  25
ENDBRANCH  18  20
ENDBRANCH  15  16
BRANCH  15  27
ATOM     27  CB  HIS A   8      28.494  15.499  -2.100  0.00  0.00    +0.076 C 
BRANCH  27  28
ATOM     28  CG  HIS A   8      28.502  16.584  -1.038  0.00  0.00    +0.082 A 
ATOM     29  ND1 HIS A   8      28.651  16.308   0.300  0.00  0.00    -0.227 NA
ATOM     30  CE1 HIS A   8      28.572  17.438   0.994  0.00  0.00    +0.199 A 
ATOM     31  NE2 HIS A   8      28.356  18.426   0.151  0.00  0.00    -0.221 NA
ATOM     32  CD2 HIS A   8      28.275  17.916  -1.120  0.00  0.00    +0.115 A 
ENDBRANCH  27  28
ENDBRANCH  15  27
ENDBRANCH  13  15
ENDBRANCH  10  11
BRANCH  10  33
ATOM     33  CB  THR A   7      32.270  17.902  -0.494  0.00  0.00    +0.137 C 
ATOM     34  CG2 THR A   7      32.441  17.075   0.759  0.00  0.00    +0.034 C 
BRANCH  33  35
ATOM     35  OG1 THR A   7      33.035  19.104  -0.326  0.00  0.00    -0.382 OA
ATOM     36  HG1 THR A   7      32.950  19.664  -1.138  0.00  0.00    +0.210 HD
ENDBRANCH  33  35
ENDBRANCH  10  33
ENDBRANCH   7  10
ENDBRANCH   5   6
BRANCH   5  37
ATOM     37  CB  LEU A   6      34.000  19.034  -5.788  0.00  0.00    +0.029 C 
BRANCH  37  38
ATOM     38  CG  LEU A   6      33.973  20.011  -6.965  0.00  0.00    +0.002 C 
ATOM     39  CD2 LEU A   6      35.395  20.298  -7.410  0.00  0.00    +0.000 C 
ATOM     40  CD1 LEU A   6      33.049  19.377  -8.065  0.00  0.00    +0.000 C 
ENDBRANCH  37  38
ENDBRANCH   5  37
ENDBRANCH   3   5
BRANCH   1  41
ATOM     41  CA  GLY A   5      29.725  20.776  -4.116  0.00  0.00    +0.176 C 
BRANCH  41  44
ATOM     42  C   GLY A   4      31.413  21.745  -2.601  0.00  0.00    +0.243 C 
ATOM     43  O   GLY A   4      31.557  20.680  -1.952  0.00  0.00    -0.273 OA
ATOM     44  N   GLY A   5      30.631  21.872  -3.680  0.00  0.00    -0.295 N 
ATOM     45  H   GLY A   5      30.658  22.757  -4.226  0.00  0.00    +0.150 HD
BRANCH  42  46
ATOM     46  CA  GLY A   4      32.218  22.962  -2.208  0.00  0.00    +0.176 C 
BRANCH  46  48
ATOM     47  C   ALA A   3      34.366  21.887  -2.552  0.00  0.00    +0.241 C 
ATOM     48  N   GLY A   4      33.521  22.509  -1.713  0.00  0.00    -0.295 N 
ATOM     49  H   GLY A   4      33.789  22.668  -0.721  0.00  0.00    +0.150 HD
ATOM     50  O   ALA A   3      34.094  21.696  -3.737  0.00  0.00    -0.273 OA
BRANCH  47  51
ATOM     51  CA  ALA A   3      35.746  21.453  -2.039  0.00  0.00    +0.149 C 
ATOM     52  CB  ALA A   3      35.983  19.926  -2.256  0.00  0.00    +0.031 C 
BRANCH  51  54
ATOM     53  C   ASN A   2      36.379  23.014  -0.310  0.00  0.00    +0.241 C 
ATOM     54  N   ALA A   3      35.973  21.791  -0.650  0.00  0.00    -0.297 N 
ATOM     55  H   ALA A   3      35.818  21.075   0.088  0.00  0.00    +0.150 HD
ATOM     56  O   ASN A   2      36.490  23.924  -1.134  0.00  0.00    -0.273 OA
BRANCH  53  57
ATOM     57  CA  ASN A   2      36.777  23.204   1.162  0.00  0.00    +0.158 C 
BRANCH  57  60
ATOM     58  C   LEU A   1      38.882  22.152   1.787  0.00  0.00    +0.238 C 
ATOM     59  O   LEU A   1      38.314  21.409   2.555  0.00  0.00    -0.274 OA
ATOM     60  N   ASN A   2      38.256  23.132   1.139  0.00  0.00    -0.297 N 
ATOM     61  H   ASN A   2      38.804  23.846   0.618  0.00  0.00    +0.150 HD
BRANCH  58  62
ATOM     62  CA  LEU A   1      40.348  21.967   1.510  0.00  0.00    +0.145 C 
BRANCH  62  63
ATOM     63  N   LEU A   1      41.131  21.963   2.731  0.00  0.00    -0.238 NA
ATOM     64  H   LEU A   1      40.908  21.292   3.494  0.00  0.00    +0.142 HD
ENDBRANCH  62  63
BRANCH  62  65
ATOM     65  CB  LEU A   1      40.553  20.649   0.776  0.00  0.00    +0.026 C 
BRANCH  65  66
ATOM     66  CG  LEU A   1      39.681  20.375  -0.461  0.00  0.00    +0.002 C 
ATOM     67  CD2 LEU A   1      40.063  19.018  -1.038  0.00  0.00    +0.000 C 
ATOM     68  CD1 LEU A   1      39.877  21.463  -1.606  0.00  0.00    +0.000 C 
ENDBRANCH  65  66
ENDBRANCH  62  65
ENDBRANCH  58  62
ENDBRANCH  57  60
BRANCH  57  69
ATOM     69  CB  ASN A   2      36.240  24.546   1.737  0.00  0.00    +0.114 C 
BRANCH  69  70
ATOM     70  CG  ASN A   2      34.727  24.589   1.715  0.00  0.00    +0.222 C 
ATOM     71  ND2 ASN A   2      34.115  25.623   2.313  0.00  0.00    -0.329 N 
ATOM     72 HD21 ASN A   2      34.672  26.315   2.854  0.00  0.00    +0.145 HD
ATOM     73 HD22 ASN A   2      33.084  25.732   2.235  0.00  0.00    +0.145 HD
ATOM     74  OD1 ASN A   2      34.121  23.741   1.063  0.00  0.00    -0.275 OA
ENDBRANCH  69  70
ENDBRANCH  57  69
ENDBRANCH  53  57
ENDBRANCH  51  54
ENDBRANCH  47  51
ENDBRANCH  46  48
ENDBRANCH  42  46
ENDBRANCH  41  44
ENDBRANCH   1  41
TORSDOF 30
REMARK  Name = ../refined-set-2016/3n86/3n86_pocket.pdb
REMARK  239 active torsions:
REMARK  status: ('A' for Active; 'I' for Inactive)
REMARK    1  A    between atoms: _1  and  _3
REMARK    2  A    between atoms: _3  and  _4
REMARK    3  A    between atoms: _3  and  _6
REMARK    4  A    between atoms: _6  and  _7
REMARK    5  A    between atoms: _12  and  _14
REMARK    6  A    between atoms: _14  and  _15
REMARK    7  A    between atoms: _18  and  _19
REMARK    8  A    between atoms: _24  and  _26
REMARK    9  A    between atoms: _26  and  _27
REMARK   10  A    between atoms: _26  and  _29
REMARK   11  A    between atoms: _29  and  _30
REMARK   12  A    between atoms: _35  and  _37
REMARK   13  A    between atoms: _37  and  _38
REMARK   14  A    between atoms: _37  and  _40
REMARK   15  A    between atoms: _40  and  _41
REMARK   16  A    between atoms: _44  and  _46
REMARK   17  A    between atoms: _46  and  _47
REMARK   18  A    between atoms: _49  and  _51
REMARK   19  A    between atoms: _51  and  _52
REMARK   20  A    between atoms: _51  and  _54
REMARK   21  A    between atoms: _54  and  _55
REMARK   22  A    between atoms: _55  and  _56
REMARK   23  A    between atoms: _56  and  _57
REMARK   24  A    between atoms: _66  and  _68
REMARK   25  A    between atoms: _68  and  _69
REMARK   26  A    between atoms: _68  and  _71
REMARK   27  A    between atoms: _71  and  _72
REMARK   28  A    between atoms: _75  and  _77
REMARK   29  A    between atoms: _77  and  _78
REMARK   30  A    between atoms: _80  and  _82
REMARK   31  A    between atoms: _82  and  _83
REMARK   32  A    between atoms: _82  and  _85
REMARK   33  A    between atoms: _85  and  _86
REMARK   34  A    between atoms: _86  and  _87
REMARK   35  A    between atoms: _87  and  _88
REMARK   36  A    between atoms: _97  and  _99
REMARK   37  A    between atoms: _99  and  _100
REMARK   38  A    between atoms: _99  and  _102
REMARK   39  A    between atoms: _102  and  _103
REMARK   40  A    between atoms: _103  and  _104
REMARK   41  A    between atoms: _104  and  _105
REMARK   42  A    between atoms: _114  and  _116
REMARK   43  A    between atoms: _116  and  _117
REMARK   44  A    between atoms: _116  and  _119
REMARK   45  A    between atoms: _119  and  _120
REMARK   46  A    between atoms: _120  and  _121
REMARK   47  A    between atoms: _125  and  _126
REMARK   48  A    between atoms: _131  and  _133
REMARK   49  A    between atoms: _133  and  _134
REMARK   50  A    between atoms: _133  and  _136
REMARK   51  A    between atoms: _139  and  _141
REMARK   52  A    between atoms: _141  and  _142
REMARK   53  A    between atoms: _141  and  _144
REMARK   54  A    between atoms: _144  and  _145
REMARK   55  A    between atoms: _150  and  _151
REMARK   56  A    between atoms: _153  and  _155
REMARK   57  A    between atoms: _155  and  _156
REMARK   58  A    between atoms: _158  and  _160
REMARK   59  A    between atoms: _160  and  _161
REMARK   60  A    between atoms: _160  and  _163
REMARK   61  A    between atoms: _163  and  _164
REMARK   62  A    between atoms: _164  and  _165
REMARK   63  A    between atoms: _170  and  _172
REMARK   64  A    between atoms: _172  and  _173
REMARK   65  A    between atoms: _172  and  _175
REMARK   66  A    between atoms: _175  and  _176
REMARK   67  A    between atoms: _179  and  _181
REMARK   68  A    between atoms: _181  and  _182
REMARK   69  A    between atoms: _181  and  _184
REMARK   70  A    between atoms: _184  and  _185
REMARK   71  A    between atoms: _188  and  _190
REMARK   72  A    between atoms: _190  and  _191
REMARK   73  A    between atoms: _190  and  _193
REMARK   74  A    between atoms: _193  and  _194
REMARK   75  A    between atoms: _199  and  _201
REMARK   76  A    between atoms: _201  and  _202
REMARK   77  A    between atoms: _205  and  _207
REMARK   78  A    between atoms: _207  and  _208
REMARK   79  A    between atoms: _210  and  _212
REMARK   80  A    between atoms: _212  and  _213
REMARK   81  A    between atoms: _215  and  _217
REMARK   82  A    between atoms: _217  and  _218
REMARK   83  A    between atoms: _217  and  _220
REMARK   84  A    between atoms: _220  and  _221
REMARK   85  A    between atoms: _224  and  _226
REMARK   86  A    between atoms: _226  and  _227
REMARK   87  A    between atoms: _226  and  _229
REMARK   88  A    between atoms: _229  and  _230
REMARK   89  A    between atoms: _233  and  _235
REMARK   90  A    between atoms: _235  and  _236
REMARK   91  A    between atoms: _235  and  _238
REMARK   92  A    between atoms: _238  and  _239
REMARK   93  A    between atoms: _244  and  _246
REMARK   94  A    between atoms: _246  and  _247
REMARK   95  A    between atoms: _246  and  _249
REMARK   96  A    between atoms: _249  and  _250
REMARK   97  A    between atoms: _253  and  _255
REMARK   98  A    between atoms: _255  and  _256
REMARK   99  A    between atoms: _255  and  _258
REMARK  100  A    between atoms: _258  and  _259
REMARK  101  A    between atoms: _259  and  _260
REMARK  102  A    between atoms: _263  and  _265
REMARK  103  A    between atoms: _265  and  _266
REMARK  104  A    between atoms: _265  and  _268
REMARK  105  A    between atoms: _271  and  _273
REMARK  106  A    between atoms: _273  and  _274
REMARK  107  A    between atoms: _273  and  _276
REMARK  108  A    between atoms: _276  and  _277
REMARK  109  A    between atoms: _282  and  _284
REMARK  110  A    between atoms: _284  and  _285
REMARK  111  A    between atoms: _284  and  _287
REMARK  112  A    between atoms: _287  and  _288
REMARK  113  A    between atoms: _291  and  _293
REMARK  114  A    between atoms: _293  and  _294
REMARK  115  A    between atoms: _293  and  _296
REMARK  116  A    between atoms: _296  and  _297
REMARK  117  A    between atoms: _299  and  _301
REMARK  118  A    between atoms: _301  and  _302
REMARK  119  A    between atoms: _301  and  _304
REMARK  120  A    between atoms: _304  and  _305
REMARK  121  A    between atoms: _310  and  _312
REMARK  122  A    between atoms: _312  and  _313
REMARK  123  A    between atoms: _312  and  _315
REMARK  124  A    between atoms: _318  and  _320
REMARK  125  A    between atoms: _320  and  _321
REMARK  126  A    between atoms: _320  and  _323
REMARK  127  A    between atoms: _323  and  _324
REMARK  128  A    between atoms: _329  and  _331
REMARK  129  A    between atoms: _331  and  _332
REMARK  130  A    between atoms: _331  and  _334
REMARK  131  A    between atoms: _334  and  _335
REMARK  132  A    between atoms: _335  and  _336
REMARK  133  A    between atoms: _336  and  _337
REMARK  134  A    between atoms: _346  and  _348
REMARK  135  A    between atoms: _348  and  _349
REMARK  136  A    between atoms: _348  and  _351
REMARK  137  A    between atoms: _351  and  _352
REMARK  138  A    between atoms: _352  and  _353
REMARK  139  A    between atoms: _356  and  _358
REMARK  140  A    between atoms: _358  and  _359
REMARK  141  A    between atoms: _358  and  _361
REMARK  142  A    between atoms: _361  and  _362
REMARK  143  A    between atoms: _368  and  _370
REMARK  144  A    between atoms: _370  and  _371
REMARK  145  A    between atoms: _370  and  _373
REMARK  146  A    between atoms: _373  and  _374
REMARK  147  A    between atoms: _374  and  _375
REMARK  148  A    between atoms: _375  and  _376
REMARK  149  A    between atoms: _385  and  _387
REMARK  150  A    between atoms: _387  and  _388
REMARK  151  A    between atoms: _387  and  _390
REMARK  152  A    between atoms: _390  and  _391
REMARK  153  A    between atoms: _391  and  _392
REMARK  154  A    between atoms: _392  and  _393
REMARK  155  A    between atoms: _402  and  _404
REMARK  156  A    between atoms: _404  and  _405
REMARK  157  A    between atoms: _404  and  _407
REMARK  158  A    between atoms: _407  and  _408
REMARK  159  A    between atoms: _413  and  _415
REMARK  160  A    between atoms: _415  and  _416
REMARK  161  A    between atoms: _415  and  _418
REMARK  162  A    between atoms: _418  and  _419
REMARK  163  A    between atoms: _421  and  _423
REMARK  164  A    between atoms: _423  and  _424
REMARK  165  A    between atoms: _423  and  _426
REMARK  166  A    between atoms: _426  and  _427
REMARK  167  A    between atoms: _430  and  _432
REMARK  168  A    between atoms: _432  and  _433
REMARK  169  A    between atoms: _432  and  _435
REMARK  170  A    between atoms: _435  and  _436
REMARK  171  A    between atoms: _439  and  _441
REMARK  172  A    between atoms: _441  and  _442
REMARK  173  A    between atoms: _441  and  _444
REMARK  174  A    between atoms: _447  and  _449
REMARK  175  A    between atoms: _449  and  _450
REMARK  176  A    between atoms: _452  and  _454
REMARK  177  A    between atoms: _454  and  _455
REMARK  178  A    between atoms: _454  and  _457
REMARK  179  A    between atoms: _457  and  _458
REMARK  180  A    between atoms: _461  and  _463
REMARK  181  A    between atoms: _463  and  _464
REMARK  182  A    between atoms: _466  and  _468
REMARK  183  A    between atoms: _468  and  _469
REMARK  184  A    between atoms: _468  and  _471
REMARK  185  A    between atoms: _471  and  _472
REMARK  186  A    between atoms: _475  and  _477
REMARK  187  A    between atoms: _477  and  _478
REMARK  188  A    between atoms: _477  and  _480
REMARK  189  A    between atoms: _480  and  _481
REMARK  190  A    between atoms: _486  and  _487
REMARK  191  A    between atoms: _489  and  _491
REMARK  192  A    between atoms: _491  and  _492
REMARK  193  A    between atoms: _491  and  _494
REMARK  194  A    between atoms: _494  and  _495
REMARK  195  A    between atoms: _498  and  _500
REMARK  196  A    between atoms: _500  and  _501
REMARK  197  A    between atoms: _500  and  _503
REMARK  198  A    between atoms: _503  and  _504
REMARK  199  A    between atoms: _507  and  _509
REMARK  200  A    between atoms: _509  and  _510
REMARK  201  A    between atoms: _509  and  _512
REMARK  202  A    between atoms: _512  and  _513
REMARK  203  A    between atoms: _518  and  _520
REMARK  204  A    between atoms: _520  and  _521
REMARK  205  A    between atoms: _524  and  _526
REMARK  206  A    between atoms: _526  and  _527
REMARK  207  A    between atoms: _526  and  _529
REMARK  208  A    between atoms: _532  and  _534
REMARK  209  A    between atoms: _534  and  _535
REMARK  210  A    between atoms: _538  and  _540
REMARK  211  A    between atoms: _540  and  _541
REMARK  212  A    between atoms: _540  and  _543
REMARK  213  A    between atoms: _543  and  _544
REMARK  214  A    between atoms: _547  and  _549
REMARK  215  A    between atoms: _549  and  _550
REMARK  216  A    between atoms: _549  and  _552
REMARK  217  A    between atoms: _552  and  _553
REMARK  218  A    between atoms: _553  and  _554
REMARK  219  A    between atoms: _554  and  _555
REMARK  220  A    between atoms: _564  and  _566
REMARK  221  A    between atoms: _566  and  _567
REMARK  222  A    between atoms: _566  and  _569
REMARK  223  A    between atoms: _569  and  _570
REMARK  224  A    between atoms: _573  and  _575
REMARK  225  A    between atoms: _575  and  _576
REMARK  226  A    between atoms: _579  and  _581
REMARK  227  A    between atoms: _581  and  _582
REMARK  228  A    between atoms: _581  and  _584
REMARK  229  A    between atoms: _586  and  _588
REMARK  230  A    between atoms: _588  and  _589
REMARK  231  A    between atoms: _592  and  _594
REMARK  232  A    between atoms: _594  and  _595
REMARK  233  A    between atoms: _594  and  _597
REMARK  234  A    between atoms: _597  and  _598
REMARK  235  A    between atoms: _598  and  _599
REMARK  236  A    between atoms: _602  and  _604
REMARK  237  A    between atoms: _604  and  _605
REMARK  238  A    between atoms: _604  and  _607
REMARK  239  A    between atoms: _607  and  _608
REMARK                            x       y       z     vdW  Elec       q    Type
REMARK                         _______ _______ _______ _____ _____    ______ ____
ROOT
ATOM      1  C   ILE A   4      30.246  26.208   7.214  0.00  0.00    +0.241 C 
ATOM      2  O   ILE A   4      30.025  26.512   8.392  0.00  0.00    -0.273 OA
ATOM      3  N   SER A   5      29.334  25.588   6.433  0.00  0.00    -0.295 N 
ATOM      4  H   SER A   5      29.590  25.321   5.461  0.00  0.00    +0.150 HD
ENDROOT
BRANCH   3   5
ATOM      5  CA  SER A   5      27.979  25.283   6.936  0.00  0.00    +0.178 C 
BRANCH   5   6
ATOM      6  C   SER A   5      27.946  23.911   7.615  0.00  0.00    +0.243 C 
ATOM      7  N   ASN A   6      26.892  23.677   8.409  0.00  0.00    -0.297 N 
ATOM      8  H   ASN A   6      26.207  24.434   8.606  0.00  0.00    +0.150 HD
ATOM      9  O   SER A   5      28.875  23.094   7.452  0.00  0.00    -0.273 OA
BRANCH   7  10
ATOM     10  CA  ASN A   6      26.713  22.365   8.990  0.00  0.00    +0.158 C 
BRANCH  10  11
ATOM     11  C   ASN A   6      26.004  21.487   7.979  0.00  0.00    +0.241 C 
ATOM     12  O   ASN A   6      24.760  21.531   7.820  0.00  0.00    -0.273 OA
ATOM     13  N   VAL A   7      26.814  20.746   7.254  0.00  0.00    -0.297 N 
ATOM     14  H   VAL A   7      27.840  20.807   7.410  0.00  0.00    +0.150 HD
BRANCH  13  15
ATOM     15  CA  VAL A   7      26.297  19.842   6.236  0.00  0.00    +0.149 C 
BRANCH  15  16
ATOM     16  C   VAL A   7      25.315  18.784   6.780  0.00  0.00    +0.241 C 
ATOM     17  N   HIS A   8      25.348  18.476   8.077  0.00  0.00    -0.298 N 
ATOM     18  H   HIS A   8      26.061  18.928   8.685  0.00  0.00    +0.150 HD
ATOM     19  O   VAL A   7      24.600  18.188   5.977  0.00  0.00    -0.273 OA
BRANCH  17  20
ATOM     20  CA  HIS A   8      24.415  17.525   8.668  0.00  0.00    +0.143 C 
BRANCH  20  21
ATOM     21  C   HIS A   8      23.051  18.091   9.011  0.00  0.00    +0.227 C 
ATOM     22  O   HIS A   8      22.145  17.356   9.343  0.00  0.00    -0.286 OA
ENDBRANCH  20  21
BRANCH  20  23
ATOM     23  CB  HIS A   8      25.076  16.842   9.887  0.00  0.00    +0.075 C 
BRANCH  23  24
ATOM     24  CG  HIS A   8      26.309  16.136   9.479  0.00  0.00    +0.082 A 
ATOM     25  CD2 HIS A   8      27.614  16.482   9.575  0.00  0.00    +0.115 A 
ATOM     26  NE2 HIS A   8      28.330  15.493   8.956  0.00  0.00    -0.221 NA
ATOM     27  CE1 HIS A   8      27.494  14.584   8.479  0.00  0.00    +0.199 A 
ATOM     28  ND1 HIS A   8      26.266  14.965   8.760  0.00  0.00    -0.227 NA
ENDBRANCH  23  24
ENDBRANCH  20  23
ENDBRANCH  17  20
ENDBRANCH  15  16
BRANCH  15  29
ATOM     29  CB  VAL A   7      27.455  19.133   5.420  0.00  0.00    +0.027 C 
ATOM     30  CG2 VAL A   7      28.426  18.352   6.334  0.00  0.00    +0.002 C 
ATOM     31  CG1 VAL A   7      28.256  20.207   4.552  0.00  0.00    +0.002 C 
ENDBRANCH  15  29
ENDBRANCH  13  15
ENDBRANCH  10  11
BRANCH  10  32
ATOM     32  CB  ASN A   6      25.979  22.429  10.324  0.00  0.00    +0.114 C 
BRANCH  32  33
ATOM     33  CG  ASN A   6      25.858  21.072  10.965  0.00  0.00    +0.222 C 
ATOM     34  ND2 ASN A   6      25.359  21.054  12.202  0.00  0.00    -0.329 N 
ATOM     35 HD21 ASN A   6      25.270  20.153  12.714  0.00  0.00    +0.145 HD
ATOM     36 HD22 ASN A   6      25.059  21.941  12.655  0.00  0.00    +0.145 HD
ATOM     37  OD1 ASN A   6      26.238  20.046  10.360  0.00  0.00    -0.275 OA
ENDBRANCH  32  33
ENDBRANCH  10  32
ENDBRANCH   7  10
ENDBRANCH   5   6
BRANCH   5  38
ATOM     38  CB  SER A   5      26.928  25.297   5.792  0.00  0.00    +0.166 C 
BRANCH  38  39
ATOM     39  OG  SER A   5      27.046  24.177   4.928  0.00  0.00    -0.380 OA
ATOM     40  H   SER A   5      27.946  24.174   4.515  0.00  0.00    +0.211 HD
ENDBRANCH  38  39
ENDBRANCH   5  38
ENDBRANCH   3   5
BRANCH   1  41
ATOM     41  CA  ILE A   4      31.630  26.527   6.595  0.00  0.00    +0.149 C 
BRANCH  41  44
ATOM     42  C   HIS A   3      32.415  24.198   6.497  0.00  0.00    +0.241 C 
ATOM     43  O   HIS A   3      32.343  24.043   7.665  0.00  0.00    -0.273 OA
ATOM     44  N   ILE A   4      32.092  25.335   5.904  0.00  0.00    -0.297 N 
ATOM     45  H   ILE A   4      32.175  25.379   4.868  0.00  0.00    +0.150 HD
BRANCH  42  46
ATOM     46  CA  HIS A   3      32.857  23.043   5.597  0.00  0.00    +0.155 C 
BRANCH  46  48
ATOM     47  C   VAL A   2      35.188  22.381   5.318  0.00  0.00    +0.241 C 
ATOM     48  N   HIS A   3      34.092  22.451   6.087  0.00  0.00    -0.297 N 
ATOM     49  H   HIS A   3      34.126  22.074   7.056  0.00  0.00    +0.150 HD
ATOM     50  O   VAL A   2      35.182  22.540   4.074  0.00  0.00    -0.273 OA
BRANCH  47  51
ATOM     51  CA  VAL A   2      36.508  22.123   6.031  0.00  0.00    +0.148 C 
BRANCH  51  54
ATOM     52  C   GLU A   1      37.642  20.007   5.911  0.00  0.00    +0.238 C 
ATOM     53  O   GLU A   1      37.365  19.789   7.085  0.00  0.00    -0.274 OA
ATOM     54  N   VAL A   2      37.224  21.108   5.279  0.00  0.00    -0.297 N 
ATOM     55  H   VAL A   2      37.409  21.236   4.264  0.00  0.00    +0.150 HD
BRANCH  52  56
ATOM     56  CA  GLU A   1      38.465  19.004   5.113  0.00  0.00    +0.145 C 
BRANCH  56  57
ATOM     57  N   GLU A   1      39.645  18.660   5.906  0.00  0.00    -0.238 NA
ATOM     58  H   GLU A   1      39.600  17.859   6.568  0.00  0.00    +0.142 HD
ENDBRANCH  56  57
BRANCH  56  59
ATOM     59  CB  GLU A   1      37.623  17.725   4.948  0.00  0.00    +0.038 C 
BRANCH  59  60
ATOM     60  CG  GLU A   1      36.297  17.930   4.120  0.00  0.00    +0.116 C 
BRANCH  60  61
ATOM     61  CD  GLU A   1      35.492  16.593   4.077  0.00  0.00    +0.365 C 
ATOM     62  OE2 GLU A   1      36.014  15.522   4.511  0.00  0.00    -0.246 OA
ATOM     63  OE1 GLU A   1      34.370  16.616   3.574  0.00  0.00    -0.246 OA
ENDBRANCH  60  61
ENDBRANCH  59  60
ENDBRANCH  56  59
ENDBRANCH  52  56
ENDBRANCH  51  54
BRANCH  51  64
ATOM     64  CB  VAL A   2      37.358  23.466   6.109  0.00  0.00    +0.027 C 
ATOM     65  CG2 VAL A   2      38.581  23.323   7.096  0.00  0.00    +0.002 C 
ATOM     66  CG1 VAL A   2      36.520  24.638   6.522  0.00  0.00    +0.002 C 
ENDBRANCH  51  64
ENDBRANCH  47  51
ENDBRANCH  46  48
BRANCH  46  67
ATOM     67  CB  HIS A   3      31.775  21.946   5.519  0.00  0.00    +0.076 C 
BRANCH  67  68
ATOM     68  CG  HIS A   3      32.186  20.822   4.611  0.00  0.00    +0.082 A 
ATOM     69  CD2 HIS A   3      32.719  19.605   4.876  0.00  0.00    +0.115 A 
ATOM     70  NE2 HIS A   3      33.009  19.009   3.662  0.00  0.00    -0.221 NA
ATOM     71  CE1 HIS A   3      32.687  19.849   2.691  0.00  0.00    +0.199 A 
ATOM     72  ND1 HIS A   3      32.218  20.964   3.239  0.00  0.00    -0.227 NA
ENDBRANCH  67  68
ENDBRANCH  46  67
ENDBRANCH  42  46
ENDBRANCH  41  44
BRANCH  41  73
ATOM     73  CB  ILE A   4      31.534  27.697   5.619  0.00  0.00    +0.027 C 
ATOM     74  CG2 ILE A   4      30.755  28.944   6.238  0.00  0.00    +0.002 C 
BRANCH  73  75
ATOM     75  CG1 ILE A   4      32.909  28.060   5.039  0.00  0.00    +0.002 C 
ATOM     76  CD1 ILE A   4      32.845  28.986   3.794  0.00  0.00    +0.000 C 
ENDBRANCH  73  75
ENDBRANCH  41  73
ENDBRANCH   1  41
TORSDOF 31
REMARK  Name = ../refined-set-2016/3n86/3n86_pocket.pdb
REMARK  239 active torsions:
REMARK  status: ('A' for Active; 'I' for Inactive)
REMARK    1  A    between atoms: _1  and  _3
REMARK    2  A    between atoms: _3  and  _4
REMARK    3  A    between atoms: _3  and  _6
REMARK    4  A    between atoms: _6  and  _7
REMARK    5  A    between atoms: _12  and  _14
REMARK    6  A    between atoms: _14  and  _15
REMARK    7  A    between atoms: _18  and  _19
REMARK    8  A    between atoms: _24  and  _26
REMARK    9  A    between atoms: _26  and  _27
REMARK   10  A    between atoms: _26  and  _29
REMARK   11  A    between atoms: _29  and  _30
REMARK   12  A    between atoms: _35  and  _37
REMARK   13  A    between atoms: _37  and  _38
REMARK   14  A    between atoms: _37  and  _40
REMARK   15  A    between atoms: _40  and  _41
REMARK   16  A    between atoms: _44  and  _46
REMARK   17  A    between atoms: _46  and  _47
REMARK   18  A    between atoms: _49  and  _51
REMARK   19  A    between atoms: _51  and  _52
REMARK   20  A    between atoms: _51  and  _54
REMARK   21  A    between atoms: _54  and  _55
REMARK   22  A    between atoms: _55  and  _56
REMARK   23  A    between atoms: _56  and  _57
REMARK   24  A    between atoms: _66  and  _68
REMARK   25  A    between atoms: _68  and  _69
REMARK   26  A    between atoms: _68  and  _71
REMARK   27  A    between atoms: _71  and  _72
REMARK   28  A    between atoms: _75  and  _77
REMARK   29  A    between atoms: _77  and  _78
REMARK   30  A    between atoms: _80  and  _82
REMARK   31  A    between atoms: _82  and  _83
REMARK   32  A    between atoms: _82  and  _85
REMARK   33  A    between atoms: _85  and  _86
REMARK   34  A    between atoms: _86  and  _87
REMARK   35  A    between atoms: _87  and  _88
REMARK   36  A    between atoms: _97  and  _99
REMARK   37  A    between atoms: _99  and  _100
REMARK   38  A    between atoms: _99  and  _102
REMARK   39  A    between atoms: _102  and  _103
REMARK   40  A    between atoms: _103  and  _104
REMARK   41  A    between atoms: _104  and  _105
REMARK   42  A    between atoms: _114  and  _116
REMARK   43  A    between atoms: _116  and  _117
REMARK   44  A    between atoms: _116  and  _119
REMARK   45  A    between atoms: _119  and  _120
REMARK   46  A    between atoms: _120  and  _121
REMARK   47  A    between atoms: _125  and  _126
REMARK   48  A    between atoms: _131  and  _133
REMARK   49  A    between atoms: _133  and  _134
REMARK   50  A    between atoms: _133  and  _136
REMARK   51  A    between atoms: _139  and  _141
REMARK   52  A    between atoms: _141  and  _142
REMARK   53  A    between atoms: _141  and  _144
REMARK   54  A    between atoms: _144  and  _145
REMARK   55  A    between atoms: _150  and  _151
REMARK   56  A    between atoms: _153  and  _155
REMARK   57  A    between atoms: _155  and  _156
REMARK   58  A    between atoms: _158  and  _160
REMARK   59  A    between atoms: _160  and  _161
REMARK   60  A    between atoms: _160  and  _163
REMARK   61  A    between atoms: _163  and  _164
REMARK   62  A    between atoms: _164  and  _165
REMARK   63  A    between atoms: _170  and  _172
REMARK   64  A    between atoms: _172  and  _173
REMARK   65  A    between atoms: _172  and  _175
REMARK   66  A    between atoms: _175  and  _176
REMARK   67  A    between atoms: _179  and  _181
REMARK   68  A    between atoms: _181  and  _182
REMARK   69  A    between atoms: _181  and  _184
REMARK   70  A    between atoms: _184  and  _185
REMARK   71  A    between atoms: _188  and  _190
REMARK   72  A    between atoms: _190  and  _191
REMARK   73  A    between atoms: _190  and  _193
REMARK   74  A    between atoms: _193  and  _194
REMARK   75  A    between atoms: _199  and  _201
REMARK   76  A    between atoms: _201  and  _202
REMARK   77  A    between atoms: _205  and  _207
REMARK   78  A    between atoms: _207  and  _208
REMARK   79  A    between atoms: _210  and  _212
REMARK   80  A    between atoms: _212  and  _213
REMARK   81  A    between atoms: _215  and  _217
REMARK   82  A    between atoms: _217  and  _218
REMARK   83  A    between atoms: _217  and  _220
REMARK   84  A    between atoms: _220  and  _221
REMARK   85  A    between atoms: _224  and  _226
REMARK   86  A    between atoms: _226  and  _227
REMARK   87  A    between atoms: _226  and  _229
REMARK   88  A    between atoms: _229  and  _230
REMARK   89  A    between atoms: _233  and  _235
REMARK   90  A    between atoms: _235  and  _236
REMARK   91  A    between atoms: _235  and  _238
REMARK   92  A    between atoms: _238  and  _239
REMARK   93  A    between atoms: _244  and  _246
REMARK   94  A    between atoms: _246  and  _247
REMARK   95  A    between atoms: _246  and  _249
REMARK   96  A    between atoms: _249  and  _250
REMARK   97  A    between atoms: _253  and  _255
REMARK   98  A    between atoms: _255  and  _256
REMARK   99  A    between atoms: _255  and  _258
REMARK  100  A    between atoms: _258  and  _259
REMARK  101  A    between atoms: _259  and  _260
REMARK  102  A    between atoms: _263  and  _265
REMARK  103  A    between atoms: _265  and  _266
REMARK  104  A    between atoms: _265  and  _268
REMARK  105  A    between atoms: _271  and  _273
REMARK  106  A    between atoms: _273  and  _274
REMARK  107  A    between atoms: _273  and  _276
REMARK  108  A    between atoms: _276  and  _277
REMARK  109  A    between atoms: _282  and  _284
REMARK  110  A    between atoms: _284  and  _285
REMARK  111  A    between atoms: _284  and  _287
REMARK  112  A    between atoms: _287  and  _288
REMARK  113  A    between atoms: _291  and  _293
REMARK  114  A    between atoms: _293  and  _294
REMARK  115  A    between atoms: _293  and  _296
REMARK  116  A    between atoms: _296  and  _297
REMARK  117  A    between atoms: _299  and  _301
REMARK  118  A    between atoms: _301  and  _302
REMARK  119  A    between atoms: _301  and  _304
REMARK  120  A    between atoms: _304  and  _305
REMARK  121  A    between atoms: _310  and  _312
REMARK  122  A    between atoms: _312  and  _313
REMARK  123  A    between atoms: _312  and  _315
REMARK  124  A    between atoms: _318  and  _320
REMARK  125  A    between atoms: _320  and  _321
REMARK  126  A    between atoms: _320  and  _323
REMARK  127  A    between atoms: _323  and  _324
REMARK  128  A    between atoms: _329  and  _331
REMARK  129  A    between atoms: _331  and  _332
REMARK  130  A    between atoms: _331  and  _334
REMARK  131  A    between atoms: _334  and  _335
REMARK  132  A    between atoms: _335  and  _336
REMARK  133  A    between atoms: _336  and  _337
REMARK  134  A    between atoms: _346  and  _348
REMARK  135  A    between atoms: _348  and  _349
REMARK  136  A    between atoms: _348  and  _351
REMARK  137  A    between atoms: _351  and  _352
REMARK  138  A    between atoms: _352  and  _353
REMARK  139  A    between atoms: _356  and  _358
REMARK  140  A    between atoms: _358  and  _359
REMARK  141  A    between atoms: _358  and  _361
REMARK  142  A    between atoms: _361  and  _362
REMARK  143  A    between atoms: _368  and  _370
REMARK  144  A    between atoms: _370  and  _371
REMARK  145  A    between atoms: _370  and  _373
REMARK  146  A    between atoms: _373  and  _374
REMARK  147  A    between atoms: _374  and  _375
REMARK  148  A    between atoms: _375  and  _376
REMARK  149  A    between atoms: _385  and  _387
REMARK  150  A    between atoms: _387  and  _388
REMARK  151  A    between atoms: _387  and  _390
REMARK  152  A    between atoms: _390  and  _391
REMARK  153  A    between atoms: _391  and  _392
REMARK  154  A    between atoms: _392  and  _393
REMARK  155  A    between atoms: _402  and  _404
REMARK  156  A    between atoms: _404  and  _405
REMARK  157  A    between atoms: _404  and  _407
REMARK  158  A    between atoms: _407  and  _408
REMARK  159  A    between atoms: _413  and  _415
REMARK  160  A    between atoms: _415  and  _416
REMARK  161  A    between atoms: _415  and  _418
REMARK  162  A    between atoms: _418  and  _419
REMARK  163  A    between atoms: _421  and  _423
REMARK  164  A    between atoms: _423  and  _424
REMARK  165  A    between atoms: _423  and  _426
REMARK  166  A    between atoms: _426  and  _427
REMARK  167  A    between atoms: _430  and  _432
REMARK  168  A    between atoms: _432  and  _433
REMARK  169  A    between atoms: _432  and  _435
REMARK  170  A    between atoms: _435  and  _436
REMARK  171  A    between atoms: _439  and  _441
REMARK  172  A    between atoms: _441  and  _442
REMARK  173  A    between atoms: _441  and  _444
REMARK  174  A    between atoms: _447  and  _449
REMARK  175  A    between atoms: _449  and  _450
REMARK  176  A    between atoms: _452  and  _454
REMARK  177  A    between atoms: _454  and  _455
REMARK  178  A    between atoms: _454  and  _457
REMARK  179  A    between atoms: _457  and  _458
REMARK  180  A    between atoms: _461  and  _463
REMARK  181  A    between atoms: _463  and  _464
REMARK  182  A    between atoms: _466  and  _468
REMARK  183  A    between atoms: _468  and  _469
REMARK  184  A    between atoms: _468  and  _471
REMARK  185  A    between atoms: _471  and  _472
REMARK  186  A    between atoms: _475  and  _477
REMARK  187  A    between atoms: _477  and  _478
REMARK  188  A    between atoms: _477  and  _480
REMARK  189  A    between atoms: _480  and  _481
REMARK  190  A    between atoms: _486  and  _487
REMARK  191  A    between atoms: _489  and  _491
REMARK  192  A    between atoms: _491  and  _492
REMARK  193  A    between atoms: _491  and  _494
REMARK  194  A    between atoms: _494  and  _495
REMARK  195  A    between atoms: _498  and  _500
REMARK  196  A    between atoms: _500  and  _501
REMARK  197  A    between atoms: _500  and  _503
REMARK  198  A    between atoms: _503  and  _504
REMARK  199  A    between atoms: _507  and  _509
REMARK  200  A    between atoms: _509  and  _510
REMARK  201  A    between atoms: _509  and  _512
REMARK  202  A    between atoms: _512  and  _513
REMARK  203  A    between atoms: _518  and  _520
REMARK  204  A    between atoms: _520  and  _521
REMARK  205  A    between atoms: _524  and  _526
REMARK  206  A    between atoms: _526  and  _527
REMARK  207  A    between atoms: _526  and  _529
REMARK  208  A    between atoms: _532  and  _534
REMARK  209  A    between atoms: _534  and  _535
REMARK  210  A    between atoms: _538  and  _540
REMARK  211  A    between atoms: _540  and  _541
REMARK  212  A    between atoms: _540  and  _543
REMARK  213  A    between atoms: _543  and  _544
REMARK  214  A    between atoms: _547  and  _549
REMARK  215  A    between atoms: _549  and  _550
REMARK  216  A    between atoms: _549  and  _552
REMARK  217  A    between atoms: _552  and  _553
REMARK  218  A    between atoms: _553  and  _554
REMARK  219  A    between atoms: _554  and  _555
REMARK  220  A    between atoms: _564  and  _566
REMARK  221  A    between atoms: _566  and  _567
REMARK  222  A    between atoms: _566  and  _569
REMARK  223  A    between atoms: _569  and  _570
REMARK  224  A    between atoms: _573  and  _575
REMARK  225  A    between atoms: _575  and  _576
REMARK  226  A    between atoms: _579  and  _581
REMARK  227  A    between atoms: _581  and  _582
REMARK  228  A    between atoms: _581  and  _584
REMARK  229  A    between atoms: _586  and  _588
REMARK  230  A    between atoms: _588  and  _589
REMARK  231  A    between atoms: _592  and  _594
REMARK  232  A    between atoms: _594  and  _595
REMARK  233  A    between atoms: _594  and  _597
REMARK  234  A    between atoms: _597  and  _598
REMARK  235  A    between atoms: _598  and  _599
REMARK  236  A    between atoms: _602  and  _604
REMARK  237  A    between atoms: _604  and  _605
REMARK  238  A    between atoms: _604  and  _607
REMARK  239  A    between atoms: _607  and  _608
REMARK                            x       y       z     vdW  Elec       q    Type
REMARK                         _______ _______ _______ _____ _____    ______ ____
ROOT
ATOM      1  CA  ARG A   1      20.887  20.426   5.443  0.00  0.00    +0.145 C 
ENDROOT
BRANCH   1   2
ATOM      2  C   ARG A   1      20.231  19.213   4.697  0.00  0.00    +0.238 C 
ATOM      3  O   ARG A   1      19.623  18.347   5.342  0.00  0.00    -0.274 OA
ATOM      4  N   GLU A   2      20.356  19.129   3.377  0.00  0.00    -0.298 N 
ATOM      5  H   GLU A   2      20.823  19.897   2.854  0.00  0.00    +0.150 HD
BRANCH   4   6
ATOM      6  CA  GLU A   2      19.837  17.954   2.644  0.00  0.00    +0.137 C 
BRANCH   6   7
ATOM      7  C   GLU A   2      20.647  16.683   2.970  0.00  0.00    +0.227 C 
ATOM      8  O   GLU A   2      21.863  16.703   3.179  0.00  0.00    -0.286 OA
ENDBRANCH   6   7
BRANCH   6   9
ATOM      9  CB  GLU A   2      19.855  18.207   1.123  0.00  0.00    +0.039 C 
BRANCH   9  10
ATOM     10  CG  GLU A   2      19.057  19.402   0.647  0.00  0.00    +0.116 C 
BRANCH  10  11
ATOM     11  CD  GLU A   2      19.894  20.678   0.546  0.00  0.00    +0.365 C 
ATOM     12  OE2 GLU A   2      20.858  20.830   1.337  0.00  0.00    -0.246 OA
ATOM     13  OE1 GLU A   2      19.601  21.522  -0.339  0.00  0.00    -0.246 OA
ENDBRANCH  10  11
ENDBRANCH   9  10
ENDBRANCH   6   9
ENDBRANCH   4   6
ENDBRANCH   1   2
BRANCH   1  14
ATOM     14  N   ARG A   1      21.397  20.020   6.751  0.00  0.00    -0.238 NA
ATOM     15  H   ARG A   1      22.138  19.291   6.784  0.00  0.00    +0.142 HD
ENDBRANCH   1  14
BRANCH   1  16
ATOM     16  CB  ARG A   1      22.016  21.089   4.658  0.00  0.00    +0.030 C 
BRANCH  16  17
ATOM     17  CG  ARG A   1      22.562  22.350   5.433  0.00  0.00    +0.045 C 
BRANCH  17  18
ATOM     18  CD  ARG A   1      23.603  23.178   4.658  0.00  0.00    +0.174 C 
BRANCH  18  19
ATOM     19  NE  ARG A   1      23.114  23.599   3.334  0.00  0.00    -0.265 N 
ATOM     20  HE  ARG A   1      22.106  23.477   3.111  0.00  0.00    +0.259 HD
ATOM     21  CZ  ARG A   1      23.921  24.135   2.404  0.00  0.00    +0.342 C 
ATOM     22  NH2 ARG A   1      25.248  24.286   2.668  0.00  0.00    -0.292 N 
ATOM     23 HH21 ARG A   1      25.633  23.987   3.587  0.00  0.00    +0.255 HD
ATOM     24 HH22 ARG A   1      25.877  24.701   1.951  0.00  0.00    +0.255 HD
ATOM     25  NH1 ARG A   1      23.431  24.516   1.216  0.00  0.00    -0.292 N 
ATOM     26 HH11 ARG A   1      22.419  24.397   1.009  0.00  0.00    +0.255 HD
ATOM     27 HH12 ARG A   1      24.063  24.930   0.501  0.00  0.00    +0.255 HD
ENDBRANCH  18  19
ENDBRANCH  17  18
ENDBRANCH  16  17
ENDBRANCH   1  16
TORSDOF 11
REMARK  Name = ../refined-set-2016/3n86/3n86_pocket.pdb
REMARK  239 active torsions:
REMARK  status: ('A' for Active; 'I' for Inactive)
REMARK    1  A    between atoms: _1  and  _3
REMARK    2  A    between atoms: _3  and  _4
REMARK    3  A    between atoms: _3  and  _6
REMARK    4  A    between atoms: _6  and  _7
REMARK    5  A    between atoms: _12  and  _14
REMARK    6  A    between atoms: _14  and  _15
REMARK    7  A    between atoms: _18  and  _19
REMARK    8  A    between atoms: _24  and  _26
REMARK    9  A    between atoms: _26  and  _27
REMARK   10  A    between atoms: _26  and  _29
REMARK   11  A    between atoms: _29  and  _30
REMARK   12  A    between atoms: _35  and  _37
REMARK   13  A    between atoms: _37  and  _38
REMARK   14  A    between atoms: _37  and  _40
REMARK   15  A    between atoms: _40  and  _41
REMARK   16  A    between atoms: _44  and  _46
REMARK   17  A    between atoms: _46  and  _47
REMARK   18  A    between atoms: _49  and  _51
REMARK   19  A    between atoms: _51  and  _52
REMARK   20  A    between atoms: _51  and  _54
REMARK   21  A    between atoms: _54  and  _55
REMARK   22  A    between atoms: _55  and  _56
REMARK   23  A    between atoms: _56  and  _57
REMARK   24  A    between atoms: _66  and  _68
REMARK   25  A    between atoms: _68  and  _69
REMARK   26  A    between atoms: _68  and  _71
REMARK   27  A    between atoms: _71  and  _72
REMARK   28  A    between atoms: _75  and  _77
REMARK   29  A    between atoms: _77  and  _78
REMARK   30  A    between atoms: _80  and  _82
REMARK   31  A    between atoms: _82  and  _83
REMARK   32  A    between atoms: _82  and  _85
REMARK   33  A    between atoms: _85  and  _86
REMARK   34  A    between atoms: _86  and  _87
REMARK   35  A    between atoms: _87  and  _88
REMARK   36  A    between atoms: _97  and  _99
REMARK   37  A    between atoms: _99  and  _100
REMARK   38  A    between atoms: _99  and  _102
REMARK   39  A    between atoms: _102  and  _103
REMARK   40  A    between atoms: _103  and  _104
REMARK   41  A    between atoms: _104  and  _105
REMARK   42  A    between atoms: _114  and  _116
REMARK   43  A    between atoms: _116  and  _117
REMARK   44  A    between atoms: _116  and  _119
REMARK   45  A    between atoms: _119  and  _120
REMARK   46  A    between atoms: _120  and  _121
REMARK   47  A    between atoms: _125  and  _126
REMARK   48  A    between atoms: _131  and  _133
REMARK   49  A    between atoms: _133  and  _134
REMARK   50  A    between atoms: _133  and  _136
REMARK   51  A    between atoms: _139  and  _141
REMARK   52  A    between atoms: _141  and  _142
REMARK   53  A    between atoms: _141  and  _144
REMARK   54  A    between atoms: _144  and  _145
REMARK   55  A    between atoms: _150  and  _151
REMARK   56  A    between atoms: _153  and  _155
REMARK   57  A    between atoms: _155  and  _156
REMARK   58  A    between atoms: _158  and  _160
REMARK   59  A    between atoms: _160  and  _161
REMARK   60  A    between atoms: _160  and  _163
REMARK   61  A    between atoms: _163  and  _164
REMARK   62  A    between atoms: _164  and  _165
REMARK   63  A    between atoms: _170  and  _172
REMARK   64  A    between atoms: _172  and  _173
REMARK   65  A    between atoms: _172  and  _175
REMARK   66  A    between atoms: _175  and  _176
REMARK   67  A    between atoms: _179  and  _181
REMARK   68  A    between atoms: _181  and  _182
REMARK   69  A    between atoms: _181  and  _184
REMARK   70  A    between atoms: _184  and  _185
REMARK   71  A    between atoms: _188  and  _190
REMARK   72  A    between atoms: _190  and  _191
REMARK   73  A    between atoms: _190  and  _193
REMARK   74  A    between atoms: _193  and  _194
REMARK   75  A    between atoms: _199  and  _201
REMARK   76  A    between atoms: _201  and  _202
REMARK   77  A    between atoms: _205  and  _207
REMARK   78  A    between atoms: _207  and  _208
REMARK   79  A    between atoms: _210  and  _212
REMARK   80  A    between atoms: _212  and  _213
REMARK   81  A    between atoms: _215  and  _217
REMARK   82  A    between atoms: _217  and  _218
REMARK   83  A    between atoms: _217  and  _220
REMARK   84  A    between atoms: _220  and  _221
REMARK   85  A    between atoms: _224  and  _226
REMARK   86  A    between atoms: _226  and  _227
REMARK   87  A    between atoms: _226  and  _229
REMARK   88  A    between atoms: _229  and  _230
REMARK   89  A    between atoms: _233  and  _235
REMARK   90  A    between atoms: _235  and  _236
REMARK   91  A    between atoms: _235  and  _238
REMARK   92  A    between atoms: _238  and  _239
REMARK   93  A    between atoms: _244  and  _246
REMARK   94  A    between atoms: _246  and  _247
REMARK   95  A    between atoms: _246  and  _249
REMARK   96  A    between atoms: _249  and  _250
REMARK   97  A    between atoms: _253  and  _255
REMARK   98  A    between atoms: _255  and  _256
REMARK   99  A    between atoms: _255  and  _258
REMARK  100  A    between atoms: _258  and  _259
REMARK  101  A    between atoms: _259  and  _260
REMARK  102  A    between atoms: _263  and  _265
REMARK  103  A    between atoms: _265  and  _266
REMARK  104  A    between atoms: _265  and  _268
REMARK  105  A    between atoms: _271  and  _273
REMARK  106  A    between atoms: _273  and  _274
REMARK  107  A    between atoms: _273  and  _276
REMARK  108  A    between atoms: _276  and  _277
REMARK  109  A    between atoms: _282  and  _284
REMARK  110  A    between atoms: _284  and  _285
REMARK  111  A    between atoms: _284  and  _287
REMARK  112  A    between atoms: _287  and  _288
REMARK  113  A    between atoms: _291  and  _293
REMARK  114  A    between atoms: _293  and  _294
REMARK  115  A    between atoms: _293  and  _296
REMARK  116  A    between atoms: _296  and  _297
REMARK  117  A    between atoms: _299  and  _301
REMARK  118  A    between atoms: _301  and  _302
REMARK  119  A    between atoms: _301  and  _304
REMARK  120  A    between atoms: _304  and  _305
REMARK  121  A    between atoms: _310  and  _312
REMARK  122  A    between atoms: _312  and  _313
REMARK  123  A    between atoms: _312  and  _315
REMARK  124  A    between atoms: _318  and  _320
REMARK  125  A    between atoms: _320  and  _321
REMARK  126  A    between atoms: _320  and  _323
REMARK  127  A    between atoms: _323  and  _324
REMARK  128  A    between atoms: _329  and  _331
REMARK  129  A    between atoms: _331  and  _332
REMARK  130  A    between atoms: _331  and  _334
REMARK  131  A    between atoms: _334  and  _335
REMARK  132  A    between atoms: _335  and  _336
REMARK  133  A    between atoms: _336  and  _337
REMARK  134  A    between atoms: _346  and  _348
REMARK  135  A    between atoms: _348  and  _349
REMARK  136  A    between atoms: _348  and  _351
REMARK  137  A    between atoms: _351  and  _352
REMARK  138  A    between atoms: _352  and  _353
REMARK  139  A    between atoms: _356  and  _358
REMARK  140  A    between atoms: _358  and  _359
REMARK  141  A    between atoms: _358  and  _361
REMARK  142  A    between atoms: _361  and  _362
REMARK  143  A    between atoms: _368  and  _370
REMARK  144  A    between atoms: _370  and  _371
REMARK  145  A    between atoms: _370  and  _373
REMARK  146  A    between atoms: _373  and  _374
REMARK  147  A    between atoms: _374  and  _375
REMARK  148  A    between atoms: _375  and  _376
REMARK  149  A    between atoms: _385  and  _387
REMARK  150  A    between atoms: _387  and  _388
REMARK  151  A    between atoms: _387  and  _390
REMARK  152  A    between atoms: _390  and  _391
REMARK  153  A    between atoms: _391  and  _392
REMARK  154  A    between atoms: _392  and  _393
REMARK  155  A    between atoms: _402  and  _404
REMARK  156  A    between atoms: _404  and  _405
REMARK  157  A    between atoms: _404  and  _407
REMARK  158  A    between atoms: _407  and  _408
REMARK  159  A    between atoms: _413  and  _415
REMARK  160  A    between atoms: _415  and  _416
REMARK  161  A    between atoms: _415  and  _418
REMARK  162  A    between atoms: _418  and  _419
REMARK  163  A    between atoms: _421  and  _423
REMARK  164  A    between atoms: _423  and  _424
REMARK  165  A    between atoms: _423  and  _426
REMARK  166  A    between atoms: _426  and  _427
REMARK  167  A    between atoms: _430  and  _432
REMARK  168  A    between atoms: _432  and  _433
REMARK  169  A    between atoms: _432  and  _435
REMARK  170  A    between atoms: _435  and  _436
REMARK  171  A    between atoms: _439  and  _441
REMARK  172  A    between atoms: _441  and  _442
REMARK  173  A    between atoms: _441  and  _444
REMARK  174  A    between atoms: _447  and  _449
REMARK  175  A    between atoms: _449  and  _450
REMARK  176  A    between atoms: _452  and  _454
REMARK  177  A    between atoms: _454  and  _455
REMARK  178  A    between atoms: _454  and  _457
REMARK  179  A    between atoms: _457  and  _458
REMARK  180  A    between atoms: _461  and  _463
REMARK  181  A    between atoms: _463  and  _464
REMARK  182  A    between atoms: _466  and  _468
REMARK  183  A    between atoms: _468  and  _469
REMARK  184  A    between atoms: _468  and  _471
REMARK  185  A    between atoms: _471  and  _472
REMARK  186  A    between atoms: _475  and  _477
REMARK  187  A    between atoms: _477  and  _478
REMARK  188  A    between atoms: _477  and  _480
REMARK  189  A    between atoms: _480  and  _481
REMARK  190  A    between atoms: _486  and  _487
REMARK  191  A    between atoms: _489  and  _491
REMARK  192  A    between atoms: _491  and  _492
REMARK  193  A    between atoms: _491  and  _494
REMARK  194  A    between atoms: _494  and  _495
REMARK  195  A    between atoms: _498  and  _500
REMARK  196  A    between atoms: _500  and  _501
REMARK  197  A    between atoms: _500  and  _503
REMARK  198  A    between atoms: _503  and  _504
REMARK  199  A    between atoms: _507  and  _509
REMARK  200  A    between atoms: _509  and  _510
REMARK  201  A    between atoms: _509  and  _512
REMARK  202  A    between atoms: _512  and  _513
REMARK  203  A    between atoms: _518  and  _520
REMARK  204  A    between atoms: _520  and  _521
REMARK  205  A    between atoms: _524  and  _526
REMARK  206  A    between atoms: _526  and  _527
REMARK  207  A    between atoms: _526  and  _529
REMARK  208  A    between atoms: _532  and  _534
REMARK  209  A    between atoms: _534  and  _535
REMARK  210  A    between atoms: _538  and  _540
REMARK  211  A    between atoms: _540  and  _541
REMARK  212  A    between atoms: _540  and  _543
REMARK  213  A    between atoms: _543  and  _544
REMARK  214  A    between atoms: _547  and  _549
REMARK  215  A    between atoms: _549  and  _550
REMARK  216  A    between atoms: _549  and  _552
REMARK  217  A    between atoms: _552  and  _553
REMARK  218  A    between atoms: _553  and  _554
REMARK  219  A    between atoms: _554  and  _555
REMARK  220  A    between atoms: _564  and  _566
REMARK  221  A    between atoms: _566  and  _567
REMARK  222  A    between atoms: _566  and  _569
REMARK  223  A    between atoms: _569  and  _570
REMARK  224  A    between atoms: _573  and  _575
REMARK  225  A    between atoms: _575  and  _576
REMARK  226  A    between atoms: _579  and  _581
REMARK  227  A    between atoms: _581  and  _582
REMARK  228  A    between atoms: _581  and  _584
REMARK  229  A    between atoms: _586  and  _588
REMARK  230  A    between atoms: _588  and  _589
REMARK  231  A    between atoms: _592  and  _594
REMARK  232  A    between atoms: _594  and  _595
REMARK  233  A    between atoms: _594  and  _597
REMARK  234  A    between atoms: _597  and  _598
REMARK  235  A    between atoms: _598  and  _599
REMARK  236  A    between atoms: _602  and  _604
REMARK  237  A    between atoms: _604  and  _605
REMARK  238  A    between atoms: _604  and  _607
REMARK  239  A    between atoms: _607  and  _608
REMARK                            x       y       z     vdW  Elec       q    Type
REMARK                         _______ _______ _______ _____ _____    ______ ____
ROOT
ATOM      1  CA  ARG A   3      25.863  14.111   4.687  0.00  0.00    +0.149 C 
ENDROOT
BRANCH   1   2
ATOM      2  C   ARG A   3      26.847  13.046   4.290  0.00  0.00    +0.241 C 
ATOM      3  O   ARG A   3      27.321  12.275   5.165  0.00  0.00    -0.273 OA
ATOM      4  N   HIS A   4      27.144  12.960   2.989  0.00  0.00    -0.297 N 
ATOM      5  H   HIS A   4      26.647  13.564   2.304  0.00  0.00    +0.150 HD
BRANCH   4   6
ATOM      6  CA  HIS A   4      28.160  12.025   2.525  0.00  0.00    +0.155 C 
BRANCH   6   7
ATOM      7  C   HIS A   4      29.285  12.812   1.839  0.00  0.00    +0.241 C 
ATOM      8  N   SER A   5      30.505  12.544   2.292  0.00  0.00    -0.296 N 
ATOM      9  H   SER A   5      30.613  11.894   3.096  0.00  0.00    +0.150 HD
ATOM     10  O   HIS A   4      29.039  13.605   0.912  0.00  0.00    -0.273 OA
BRANCH   8  11
ATOM     11  CA  SER A   5      31.681  13.126   1.704  0.00  0.00    +0.166 C 
BRANCH  11  12
ATOM     12  C   SER A   5      32.561  12.054   1.147  0.00  0.00    +0.229 C 
ATOM     13  O   SER A   5      32.927  11.080   1.871  0.00  0.00    -0.286 OA
ENDBRANCH  11  12
BRANCH  11  14
ATOM     14  CB  SER A   5      32.426  13.905   2.818  0.00  0.00    +0.165 C 
BRANCH  14  15
ATOM     15  OG  SER A   5      33.692  14.301   2.312  0.00  0.00    -0.380 OA
ATOM     16  H   SER A   5      34.184  14.801   3.011  0.00  0.00    +0.211 HD
ENDBRANCH  14  15
ENDBRANCH  11  14
ENDBRANCH   8  11
ENDBRANCH   6   7
BRANCH   6  17
ATOM     17  CB  HIS A   4      27.639  10.970   1.539  0.00  0.00    +0.076 C 
BRANCH  17  18
ATOM     18  CG  HIS A   4      28.739  10.153   0.939  0.00  0.00    +0.082 A 
ATOM     19  CD2 HIS A   4      29.529   9.169   1.475  0.00  0.00    +0.115 A 
ATOM     20  NE2 HIS A   4      30.472   8.845   0.521  0.00  0.00    -0.221 NA
ATOM     21  CE1 HIS A   4      30.296   9.630  -0.533  0.00  0.00    +0.199 A 
ATOM     22  ND1 HIS A   4      29.257  10.420  -0.310  0.00  0.00    -0.227 NA
ENDBRANCH  17  18
ENDBRANCH   6  17
ENDBRANCH   4   6
ENDBRANCH   1   2
BRANCH   1  24
ATOM     23  C   ARG A   2      25.941  15.945   3.098  0.00  0.00    +0.241 C 
ATOM     24  N   ARG A   3      25.289  14.889   3.568  0.00  0.00    -0.297 N 
ATOM     25  H   ARG A   3      24.378  14.610   3.151  0.00  0.00    +0.150 HD
ATOM     26  O   ARG A   2      27.000  16.348   3.560  0.00  0.00    -0.273 OA
BRANCH  23  27
ATOM     27  CA  ARG A   2      25.319  16.658   1.948  0.00  0.00    +0.149 C 
BRANCH  27  29
ATOM     28  C   PHE A   1      24.278  14.852   0.634  0.00  0.00    +0.239 C 
ATOM     29  N   ARG A   2      24.114  15.936   1.411  0.00  0.00    -0.297 N 
ATOM     30  H   ARG A   2      23.158  16.274   1.640  0.00  0.00    +0.150 HD
ATOM     31  O   PHE A   1      25.404  14.396   0.264  0.00  0.00    -0.274 OA
BRANCH  28  32
ATOM     32  CA  PHE A   1      23.002  14.170   0.175  0.00  0.00    +0.149 C 
BRANCH  32  33
ATOM     33  N   PHE A   1      21.852  14.530   1.057  0.00  0.00    -0.238 NA
ATOM     34  H   PHE A   1      21.061  15.105   0.704  0.00  0.00    +0.142 HD
ENDBRANCH  32  33
BRANCH  32  35
ATOM     35  CB  PHE A   1      22.696  14.478  -1.334  0.00  0.00    +0.053 C 
BRANCH  35  36
ATOM     36  CG  PHE A   1      22.465  15.949  -1.646  0.00  0.00    -0.020 A 
ATOM     37  CD2 PHE A   1      23.569  16.836  -1.820  0.00  0.00    -0.004 A 
ATOM     38  CE2 PHE A   1      23.363  18.202  -2.127  0.00  0.00    -0.000 A 
ATOM     39  CZ  PHE A   1      22.074  18.647  -2.299  0.00  0.00    -0.000 A 
ATOM     40  CE1 PHE A   1      20.953  17.742  -2.189  0.00  0.00    -0.000 A 
ATOM     41  CD1 PHE A   1      21.170  16.431  -1.881  0.00  0.00    -0.004 A 
ENDBRANCH  35  36
ENDBRANCH  32  35
ENDBRANCH  28  32
ENDBRANCH  27  29
BRANCH  27  42
ATOM     42  CB  ARG A   2      25.075  18.130   2.352  0.00  0.00    +0.033 C 
BRANCH  42  43
ATOM     43  CG  ARG A   2      24.368  18.954   1.248  0.00  0.00    +0.045 C 
BRANCH  43  44
ATOM     44  CD  ARG A   2      24.387  20.479   1.587  0.00  0.00    +0.174 C 
BRANCH  44  45
ATOM     45  NE  ARG A   2      23.540  21.144   0.576  0.00  0.00    -0.265 N 
ATOM     46  HE  ARG A   2      22.522  21.249   0.763  0.00  0.00    +0.259 HD
ATOM     47  CZ  ARG A   2      24.037  21.614  -0.569  0.00  0.00    +0.342 C 
ATOM     48  NH2 ARG A   2      25.372  21.538  -0.803  0.00  0.00    -0.292 N 
ATOM     49 HH21 ARG A   2      26.001  21.115  -0.091  0.00  0.00    +0.255 HD
ATOM     50 HH22 ARG A   2      25.765  21.903  -1.694  0.00  0.00    +0.255 HD
ATOM     51  NH1 ARG A   2      23.217  22.174  -1.473  0.00  0.00    -0.292 N 
ATOM     52 HH11 ARG A   2      22.197  22.240  -1.279  0.00  0.00    +0.255 HD
ATOM     53 HH12 ARG A   2      23.602  22.541  -2.367  0.00  0.00    +0.255 HD
ENDBRANCH  44  45
ENDBRANCH  43  44
ENDBRANCH  42  43
ENDBRANCH  27  42
ENDBRANCH  23  27
ENDBRANCH   1  24
BRANCH   1  54
ATOM     54  CB  ARG A   3      24.751  13.524   5.566  0.00  0.00    +0.033 C 
BRANCH  54  55
ATOM     55  CG  ARG A   3      23.672  14.630   5.886  0.00  0.00    +0.045 C 
BRANCH  55  56
ATOM     56  CD  ARG A   3      22.784  14.220   7.073  0.00  0.00    +0.174 C 
BRANCH  56  57
ATOM     57  NE  ARG A   3      23.513  13.964   8.351  0.00  0.00    -0.265 N 
ATOM     58  CZ  ARG A   3      22.883  13.456   9.424  0.00  0.00    +0.342 C 
ATOM     59  NH2 ARG A   3      23.505  13.215  10.569  0.00  0.00    -0.292 N 
ATOM     60 HH21 ARG A   3      22.978  12.821  11.374  0.00  0.00    +0.255 HD
ATOM     61 HH22 ARG A   3      24.520  13.420  10.662  0.00  0.00    +0.255 HD
ATOM     62  NH1 ARG A   3      21.575  13.269   9.351  0.00  0.00    -0.292 N 
ATOM     63 HH11 ARG A   3      21.059  12.877  10.165  0.00  0.00    +0.255 HD
ATOM     64 HH12 ARG A   3      21.063  13.514   8.480  0.00  0.00    +0.255 HD
ATOM     65  HE  ARG A   3      24.528  14.183   8.412  0.00  0.00    +0.259 HD
ENDBRANCH  56  57
ENDBRANCH  55  56
ENDBRANCH  54  55
ENDBRANCH   1  54
TORSDOF 24
REMARK  Name = ../refined-set-2016/3n86/3n86_pocket.pdb
REMARK  239 active torsions:
REMARK  status: ('A' for Active; 'I' for Inactive)
REMARK    1  A    between atoms: _1  and  _3
REMARK    2  A    between atoms: _3  and  _4
REMARK    3  A    between atoms: _3  and  _6
REMARK    4  A    between atoms: _6  and  _7
REMARK    5  A    between atoms: _12  and  _14
REMARK    6  A    between atoms: _14  and  _15
REMARK    7  A    between atoms: _18  and  _19
REMARK    8  A    between atoms: _24  and  _26
REMARK    9  A    between atoms: _26  and  _27
REMARK   10  A    between atoms: _26  and  _29
REMARK   11  A    between atoms: _29  and  _30
REMARK   12  A    between atoms: _35  and  _37
REMARK   13  A    between atoms: _37  and  _38
REMARK   14  A    between atoms: _37  and  _40
REMARK   15  A    between atoms: _40  and  _41
REMARK   16  A    between atoms: _44  and  _46
REMARK   17  A    between atoms: _46  and  _47
REMARK   18  A    between atoms: _49  and  _51
REMARK   19  A    between atoms: _51  and  _52
REMARK   20  A    between atoms: _51  and  _54
REMARK   21  A    between atoms: _54  and  _55
REMARK   22  A    between atoms: _55  and  _56
REMARK   23  A    between atoms: _56  and  _57
REMARK   24  A    between atoms: _66  and  _68
REMARK   25  A    between atoms: _68  and  _69
REMARK   26  A    between atoms: _68  and  _71
REMARK   27  A    between atoms: _71  and  _72
REMARK   28  A    between atoms: _75  and  _77
REMARK   29  A    between atoms: _77  and  _78
REMARK   30  A    between atoms: _80  and  _82
REMARK   31  A    between atoms: _82  and  _83
REMARK   32  A    between atoms: _82  and  _85
REMARK   33  A    between atoms: _85  and  _86
REMARK   34  A    between atoms: _86  and  _87
REMARK   35  A    between atoms: _87  and  _88
REMARK   36  A    between atoms: _97  and  _99
REMARK   37  A    between atoms: _99  and  _100
REMARK   38  A    between atoms: _99  and  _102
REMARK   39  A    between atoms: _102  and  _103
REMARK   40  A    between atoms: _103  and  _104
REMARK   41  A    between atoms: _104  and  _105
REMARK   42  A    between atoms: _114  and  _116
REMARK   43  A    between atoms: _116  and  _117
REMARK   44  A    between atoms: _116  and  _119
REMARK   45  A    between atoms: _119  and  _120
REMARK   46  A    between atoms: _120  and  _121
REMARK   47  A    between atoms: _125  and  _126
REMARK   48  A    between atoms: _131  and  _133
REMARK   49  A    between atoms: _133  and  _134
REMARK   50  A    between atoms: _133  and  _136
REMARK   51  A    between atoms: _139  and  _141
REMARK   52  A    between atoms: _141  and  _142
REMARK   53  A    between atoms: _141  and  _144
REMARK   54  A    between atoms: _144  and  _145
REMARK   55  A    between atoms: _150  and  _151
REMARK   56  A    between atoms: _153  and  _155
REMARK   57  A    between atoms: _155  and  _156
REMARK   58  A    between atoms: _158  and  _160
REMARK   59  A    between atoms: _160  and  _161
REMARK   60  A    between atoms: _160  and  _163
REMARK   61  A    between atoms: _163  and  _164
REMARK   62  A    between atoms: _164  and  _165
REMARK   63  A    between atoms: _170  and  _172
REMARK   64  A    between atoms: _172  and  _173
REMARK   65  A    between atoms: _172  and  _175
REMARK   66  A    between atoms: _175  and  _176
REMARK   67  A    between atoms: _179  and  _181
REMARK   68  A    between atoms: _181  and  _182
REMARK   69  A    between atoms: _181  and  _184
REMARK   70  A    between atoms: _184  and  _185
REMARK   71  A    between atoms: _188  and  _190
REMARK   72  A    between atoms: _190  and  _191
REMARK   73  A    between atoms: _190  and  _193
REMARK   74  A    between atoms: _193  and  _194
REMARK   75  A    between atoms: _199  and  _201
REMARK   76  A    between atoms: _201  and  _202
REMARK   77  A    between atoms: _205  and  _207
REMARK   78  A    between atoms: _207  and  _208
REMARK   79  A    between atoms: _210  and  _212
REMARK   80  A    between atoms: _212  and  _213
REMARK   81  A    between atoms: _215  and  _217
REMARK   82  A    between atoms: _217  and  _218
REMARK   83  A    between atoms: _217  and  _220
REMARK   84  A    between atoms: _220  and  _221
REMARK   85  A    between atoms: _224  and  _226
REMARK   86  A    between atoms: _226  and  _227
REMARK   87  A    between atoms: _226  and  _229
REMARK   88  A    between atoms: _229  and  _230
REMARK   89  A    between atoms: _233  and  _235
REMARK   90  A    between atoms: _235  and  _236
REMARK   91  A    between atoms: _235  and  _238
REMARK   92  A    between atoms: _238  and  _239
REMARK   93  A    between atoms: _244  and  _246
REMARK   94  A    between atoms: _246  and  _247
REMARK   95  A    between atoms: _246  and  _249
REMARK   96  A    between atoms: _249  and  _250
REMARK   97  A    between atoms: _253  and  _255
REMARK   98  A    between atoms: _255  and  _256
REMARK   99  A    between atoms: _255  and  _258
REMARK  100  A    between atoms: _258  and  _259
REMARK  101  A    between atoms: _259  and  _260
REMARK  102  A    between atoms: _263  and  _265
REMARK  103  A    between atoms: _265  and  _266
REMARK  104  A    between atoms: _265  and  _268
REMARK  105  A    between atoms: _271  and  _273
REMARK  106  A    between atoms: _273  and  _274
REMARK  107  A    between atoms: _273  and  _276
REMARK  108  A    between atoms: _276  and  _277
REMARK  109  A    between atoms: _282  and  _284
REMARK  110  A    between atoms: _284  and  _285
REMARK  111  A    between atoms: _284  and  _287
REMARK  112  A    between atoms: _287  and  _288
REMARK  113  A    between atoms: _291  and  _293
REMARK  114  A    between atoms: _293  and  _294
REMARK  115  A    between atoms: _293  and  _296
REMARK  116  A    between atoms: _296  and  _297
REMARK  117  A    between atoms: _299  and  _301
REMARK  118  A    between atoms: _301  and  _302
REMARK  119  A    between atoms: _301  and  _304
REMARK  120  A    between atoms: _304  and  _305
REMARK  121  A    between atoms: _310  and  _312
REMARK  122  A    between atoms: _312  and  _313
REMARK  123  A    between atoms: _312  and  _315
REMARK  124  A    between atoms: _318  and  _320
REMARK  125  A    between atoms: _320  and  _321
REMARK  126  A    between atoms: _320  and  _323
REMARK  127  A    between atoms: _323  and  _324
REMARK  128  A    between atoms: _329  and  _331
REMARK  129  A    between atoms: _331  and  _332
REMARK  130  A    between atoms: _331  and  _334
REMARK  131  A    between atoms: _334  and  _335
REMARK  132  A    between atoms: _335  and  _336
REMARK  133  A    between atoms: _336  and  _337
REMARK  134  A    between atoms: _346  and  _348
REMARK  135  A    between atoms: _348  and  _349
REMARK  136  A    between atoms: _348  and  _351
REMARK  137  A    between atoms: _351  and  _352
REMARK  138  A    between atoms: _352  and  _353
REMARK  139  A    between atoms: _356  and  _358
REMARK  140  A    between atoms: _358  and  _359
REMARK  141  A    between atoms: _358  and  _361
REMARK  142  A    between atoms: _361  and  _362
REMARK  143  A    between atoms: _368  and  _370
REMARK  144  A    between atoms: _370  and  _371
REMARK  145  A    between atoms: _370  and  _373
REMARK  146  A    between atoms: _373  and  _374
REMARK  147  A    between atoms: _374  and  _375
REMARK  148  A    between atoms: _375  and  _376
REMARK  149  A    between atoms: _385  and  _387
REMARK  150  A    between atoms: _387  and  _388
REMARK  151  A    between atoms: _387  and  _390
REMARK  152  A    between atoms: _390  and  _391
REMARK  153  A    between atoms: _391  and  _392
REMARK  154  A    between atoms: _392  and  _393
REMARK  155  A    between atoms: _402  and  _404
REMARK  156  A    between atoms: _404  and  _405
REMARK  157  A    between atoms: _404  and  _407
REMARK  158  A    between atoms: _407  and  _408
REMARK  159  A    between atoms: _413  and  _415
REMARK  160  A    between atoms: _415  and  _416
REMARK  161  A    between atoms: _415  and  _418
REMARK  162  A    between atoms: _418  and  _419
REMARK  163  A    between atoms: _421  and  _423
REMARK  164  A    between atoms: _423  and  _424
REMARK  165  A    between atoms: _423  and  _426
REMARK  166  A    between atoms: _426  and  _427
REMARK  167  A    between atoms: _430  and  _432
REMARK  168  A    between atoms: _432  and  _433
REMARK  169  A    between atoms: _432  and  _435
REMARK  170  A    between atoms: _435  and  _436
REMARK  171  A    between atoms: _439  and  _441
REMARK  172  A    between atoms: _441  and  _442
REMARK  173  A    between atoms: _441  and  _444
REMARK  174  A    between atoms: _447  and  _449
REMARK  175  A    between atoms: _449  and  _450
REMARK  176  A    between atoms: _452  and  _454
REMARK  177  A    between atoms: _454  and  _455
REMARK  178  A    between atoms: _454  and  _457
REMARK  179  A    between atoms: _457  and  _458
REMARK  180  A    between atoms: _461  and  _463
REMARK  181  A    between atoms: _463  and  _464
REMARK  182  A    between atoms: _466  and  _468
REMARK  183  A    between atoms: _468  and  _469
REMARK  184  A    between atoms: _468  and  _471
REMARK  185  A    between atoms: _471  and  _472
REMARK  186  A    between atoms: _475  and  _477
REMARK  187  A    between atoms: _477  and  _478
REMARK  188  A    between atoms: _477  and  _480
REMARK  189  A    between atoms: _480  and  _481
REMARK  190  A    between atoms: _486  and  _487
REMARK  191  A    between atoms: _489  and  _491
REMARK  192  A    between atoms: _491  and  _492
REMARK  193  A    between atoms: _491  and  _494
REMARK  194  A    between atoms: _494  and  _495
REMARK  195  A    between atoms: _498  and  _500
REMARK  196  A    between atoms: _500  and  _501
REMARK  197  A    between atoms: _500  and  _503
REMARK  198  A    between atoms: _503  and  _504
REMARK  199  A    between atoms: _507  and  _509
REMARK  200  A    between atoms: _509  and  _510
REMARK  201  A    between atoms: _509  and  _512
REMARK  202  A    between atoms: _512  and  _513
REMARK  203  A    between atoms: _518  and  _520
REMARK  204  A    between atoms: _520  and  _521
REMARK  205  A    between atoms: _524  and  _526
REMARK  206  A    between atoms: _526  and  _527
REMARK  207  A    between atoms: _526  and  _529
REMARK  208  A    between atoms: _532  and  _534
REMARK  209  A    between atoms: _534  and  _535
REMARK  210  A    between atoms: _538  and  _540
REMARK  211  A    between atoms: _540  and  _541
REMARK  212  A    between atoms: _540  and  _543
REMARK  213  A    between atoms: _543  and  _544
REMARK  214  A    between atoms: _547  and  _549
REMARK  215  A    between atoms: _549  and  _550
REMARK  216  A    between atoms: _549  and  _552
REMARK  217  A    between atoms: _552  and  _553
REMARK  218  A    between atoms: _553  and  _554
REMARK  219  A    between atoms: _554  and  _555
REMARK  220  A    between atoms: _564  and  _566
REMARK  221  A    between atoms: _566  and  _567
REMARK  222  A    between atoms: _566  and  _569
REMARK  223  A    between atoms: _569  and  _570
REMARK  224  A    between atoms: _573  and  _575
REMARK  225  A    between atoms: _575  and  _576
REMARK  226  A    between atoms: _579  and  _581
REMARK  227  A    between atoms: _581  and  _582
REMARK  228  A    between atoms: _581  and  _584
REMARK  229  A    between atoms: _586  and  _588
REMARK  230  A    between atoms: _588  and  _589
REMARK  231  A    between atoms: _592  and  _594
REMARK  232  A    between atoms: _594  and  _595
REMARK  233  A    between atoms: _594  and  _597
REMARK  234  A    between atoms: _597  and  _598
REMARK  235  A    between atoms: _598  and  _599
REMARK  236  A    between atoms: _602  and  _604
REMARK  237  A    between atoms: _604  and  _605
REMARK  238  A    between atoms: _604  and  _607
REMARK  239  A    between atoms: _607  and  _608
REMARK                            x       y       z     vdW  Elec       q    Type
REMARK                         _______ _______ _______ _____ _____    ______ ____
ROOT
ATOM      1  CA  LEU A   1      36.941  13.278   1.053  0.00  0.00    +0.133 C 
ENDROOT
BRANCH   1   2
ATOM      2  N   LEU A   1      35.588  12.893   0.554  0.00  0.00    -0.239 NA
ATOM      3  H   LEU A   1      34.780  13.536   0.677  0.00  0.00    +0.142 HD
ENDBRANCH   1   2
BRANCH   1   4
ATOM      4  C   LEU A   1      37.163  12.800   2.481  0.00  0.00    +0.224 C 
ATOM      5  O   LEU A   1      38.310  12.444   2.812  0.00  0.00    -0.287 OA
ENDBRANCH   1   4
BRANCH   1   6
ATOM      6  CB  LEU A   1      37.121  14.795   0.992  0.00  0.00    +0.025 C 
BRANCH   6   7
ATOM      7  CG  LEU A   1      36.967  15.440  -0.353  0.00  0.00    +0.002 C 
ATOM      8  CD2 LEU A   1      36.869  16.963  -0.184  0.00  0.00    +0.000 C 
ATOM      9  CD1 LEU A   1      38.139  15.023  -1.268  0.00  0.00    +0.000 C 
ENDBRANCH   6   7
ENDBRANCH   1   6
TORSDOF 4
REMARK  Name = ../refined-set-2016/3n86/3n86_pocket.pdb
REMARK  239 active torsions:
REMARK  status: ('A' for Active; 'I' for Inactive)
REMARK    1  A    between atoms: _1  and  _3
REMARK    2  A    between atoms: _3  and  _4
REMARK    3  A    between atoms: _3  and  _6
REMARK    4  A    between atoms: _6  and  _7
REMARK    5  A    between atoms: _12  and  _14
REMARK    6  A    between atoms: _14  and  _15
REMARK    7  A    between atoms: _18  and  _19
REMARK    8  A    between atoms: _24  and  _26
REMARK    9  A    between atoms: _26  and  _27
REMARK   10  A    between atoms: _26  and  _29
REMARK   11  A    between atoms: _29  and  _30
REMARK   12  A    between atoms: _35  and  _37
REMARK   13  A    between atoms: _37  and  _38
REMARK   14  A    between atoms: _37  and  _40
REMARK   15  A    between atoms: _40  and  _41
REMARK   16  A    between atoms: _44  and  _46
REMARK   17  A    between atoms: _46  and  _47
REMARK   18  A    between atoms: _49  and  _51
REMARK   19  A    between atoms: _51  and  _52
REMARK   20  A    between atoms: _51  and  _54
REMARK   21  A    between atoms: _54  and  _55
REMARK   22  A    between atoms: _55  and  _56
REMARK   23  A    between atoms: _56  and  _57
REMARK   24  A    between atoms: _66  and  _68
REMARK   25  A    between atoms: _68  and  _69
REMARK   26  A    between atoms: _68  and  _71
REMARK   27  A    between atoms: _71  and  _72
REMARK   28  A    between atoms: _75  and  _77
REMARK   29  A    between atoms: _77  and  _78
REMARK   30  A    between atoms: _80  and  _82
REMARK   31  A    between atoms: _82  and  _83
REMARK   32  A    between atoms: _82  and  _85
REMARK   33  A    between atoms: _85  and  _86
REMARK   34  A    between atoms: _86  and  _87
REMARK   35  A    between atoms: _87  and  _88
REMARK   36  A    between atoms: _97  and  _99
REMARK   37  A    between atoms: _99  and  _100
REMARK   38  A    between atoms: _99  and  _102
REMARK   39  A    between atoms: _102  and  _103
REMARK   40  A    between atoms: _103  and  _104
REMARK   41  A    between atoms: _104  and  _105
REMARK   42  A    between atoms: _114  and  _116
REMARK   43  A    between atoms: _116  and  _117
REMARK   44  A    between atoms: _116  and  _119
REMARK   45  A    between atoms: _119  and  _120
REMARK   46  A    between atoms: _120  and  _121
REMARK   47  A    between atoms: _125  and  _126
REMARK   48  A    between atoms: _131  and  _133
REMARK   49  A    between atoms: _133  and  _134
REMARK   50  A    between atoms: _133  and  _136
REMARK   51  A    between atoms: _139  and  _141
REMARK   52  A    between atoms: _141  and  _142
REMARK   53  A    between atoms: _141  and  _144
REMARK   54  A    between atoms: _144  and  _145
REMARK   55  A    between atoms: _150  and  _151
REMARK   56  A    between atoms: _153  and  _155
REMARK   57  A    between atoms: _155  and  _156
REMARK   58  A    between atoms: _158  and  _160
REMARK   59  A    between atoms: _160  and  _161
REMARK   60  A    between atoms: _160  and  _163
REMARK   61  A    between atoms: _163  and  _164
REMARK   62  A    between atoms: _164  and  _165
REMARK   63  A    between atoms: _170  and  _172
REMARK   64  A    between atoms: _172  and  _173
REMARK   65  A    between atoms: _172  and  _175
REMARK   66  A    between atoms: _175  and  _176
REMARK   67  A    between atoms: _179  and  _181
REMARK   68  A    between atoms: _181  and  _182
REMARK   69  A    between atoms: _181  and  _184
REMARK   70  A    between atoms: _184  and  _185
REMARK   71  A    between atoms: _188  and  _190
REMARK   72  A    between atoms: _190  and  _191
REMARK   73  A    between atoms: _190  and  _193
REMARK   74  A    between atoms: _193  and  _194
REMARK   75  A    between atoms: _199  and  _201
REMARK   76  A    between atoms: _201  and  _202
REMARK   77  A    between atoms: _205  and  _207
REMARK   78  A    between atoms: _207  and  _208
REMARK   79  A    between atoms: _210  and  _212
REMARK   80  A    between atoms: _212  and  _213
REMARK   81  A    between atoms: _215  and  _217
REMARK   82  A    between atoms: _217  and  _218
REMARK   83  A    between atoms: _217  and  _220
REMARK   84  A    between atoms: _220  and  _221
REMARK   85  A    between atoms: _224  and  _226
REMARK   86  A    between atoms: _226  and  _227
REMARK   87  A    between atoms: _226  and  _229
REMARK   88  A    between atoms: _229  and  _230
REMARK   89  A    between atoms: _233  and  _235
REMARK   90  A    between atoms: _235  and  _236
REMARK   91  A    between atoms: _235  and  _238
REMARK   92  A    between atoms: _238  and  _239
REMARK   93  A    between atoms: _244  and  _246
REMARK   94  A    between atoms: _246  and  _247
REMARK   95  A    between atoms: _246  and  _249
REMARK   96  A    between atoms: _249  and  _250
REMARK   97  A    between atoms: _253  and  _255
REMARK   98  A    between atoms: _255  and  _256
REMARK   99  A    between atoms: _255  and  _258
REMARK  100  A    between atoms: _258  and  _259
REMARK  101  A    between atoms: _259  and  _260
REMARK  102  A    between atoms: _263  and  _265
REMARK  103  A    between atoms: _265  and  _266
REMARK  104  A    between atoms: _265  and  _268
REMARK  105  A    between atoms: _271  and  _273
REMARK  106  A    between atoms: _273  and  _274
REMARK  107  A    between atoms: _273  and  _276
REMARK  108  A    between atoms: _276  and  _277
REMARK  109  A    between atoms: _282  and  _284
REMARK  110  A    between atoms: _284  and  _285
REMARK  111  A    between atoms: _284  and  _287
REMARK  112  A    between atoms: _287  and  _288
REMARK  113  A    between atoms: _291  and  _293
REMARK  114  A    between atoms: _293  and  _294
REMARK  115  A    between atoms: _293  and  _296
REMARK  116  A    between atoms: _296  and  _297
REMARK  117  A    between atoms: _299  and  _301
REMARK  118  A    between atoms: _301  and  _302
REMARK  119  A    between atoms: _301  and  _304
REMARK  120  A    between atoms: _304  and  _305
REMARK  121  A    between atoms: _310  and  _312
REMARK  122  A    between atoms: _312  and  _313
REMARK  123  A    between atoms: _312  and  _315
REMARK  124  A    between atoms: _318  and  _320
REMARK  125  A    between atoms: _320  and  _321
REMARK  126  A    between atoms: _320  and  _323
REMARK  127  A    between atoms: _323  and  _324
REMARK  128  A    between atoms: _329  and  _331
REMARK  129  A    between atoms: _331  and  _332
REMARK  130  A    between atoms: _331  and  _334
REMARK  131  A    between atoms: _334  and  _335
REMARK  132  A    between atoms: _335  and  _336
REMARK  133  A    between atoms: _336  and  _337
REMARK  134  A    between atoms: _346  and  _348
REMARK  135  A    between atoms: _348  and  _349
REMARK  136  A    between atoms: _348  and  _351
REMARK  137  A    between atoms: _351  and  _352
REMARK  138  A    between atoms: _352  and  _353
REMARK  139  A    between atoms: _356  and  _358
REMARK  140  A    between atoms: _358  and  _359
REMARK  141  A    between atoms: _358  and  _361
REMARK  142  A    between atoms: _361  and  _362
REMARK  143  A    between atoms: _368  and  _370
REMARK  144  A    between atoms: _370  and  _371
REMARK  145  A    between atoms: _370  and  _373
REMARK  146  A    between atoms: _373  and  _374
REMARK  147  A    between atoms: _374  and  _375
REMARK  148  A    between atoms: _375  and  _376
REMARK  149  A    between atoms: _385  and  _387
REMARK  150  A    between atoms: _387  and  _388
REMARK  151  A    between atoms: _387  and  _390
REMARK  152  A    between atoms: _390  and  _391
REMARK  153  A    between atoms: _391  and  _392
REMARK  154  A    between atoms: _392  and  _393
REMARK  155  A    between atoms: _402  and  _404
REMARK  156  A    between atoms: _404  and  _405
REMARK  157  A    between atoms: _404  and  _407
REMARK  158  A    between atoms: _407  and  _408
REMARK  159  A    between atoms: _413  and  _415
REMARK  160  A    between atoms: _415  and  _416
REMARK  161  A    between atoms: _415  and  _418
REMARK  162  A    between atoms: _418  and  _419
REMARK  163  A    between atoms: _421  and  _423
REMARK  164  A    between atoms: _423  and  _424
REMARK  165  A    between atoms: _423  and  _426
REMARK  166  A    between atoms: _426  and  _427
REMARK  167  A    between atoms: _430  and  _432
REMARK  168  A    between atoms: _432  and  _433
REMARK  169  A    between atoms: _432  and  _435
REMARK  170  A    between atoms: _435  and  _436
REMARK  171  A    between atoms: _439  and  _441
REMARK  172  A    between atoms: _441  and  _442
REMARK  173  A    between atoms: _441  and  _444
REMARK  174  A    between atoms: _447  and  _449
REMARK  175  A    between atoms: _449  and  _450
REMARK  176  A    between atoms: _452  and  _454
REMARK  177  A    between atoms: _454  and  _455
REMARK  178  A    between atoms: _454  and  _457
REMARK  179  A    between atoms: _457  and  _458
REMARK  180  A    between atoms: _461  and  _463
REMARK  181  A    between atoms: _463  and  _464
REMARK  182  A    between atoms: _466  and  _468
REMARK  183  A    between atoms: _468  and  _469
REMARK  184  A    between atoms: _468  and  _471
REMARK  185  A    between atoms: _471  and  _472
REMARK  186  A    between atoms: _475  and  _477
REMARK  187  A    between atoms: _477  and  _478
REMARK  188  A    between atoms: _477  and  _480
REMARK  189  A    between atoms: _480  and  _481
REMARK  190  A    between atoms: _486  and  _487
REMARK  191  A    between atoms: _489  and  _491
REMARK  192  A    between atoms: _491  and  _492
REMARK  193  A    between atoms: _491  and  _494
REMARK  194  A    between atoms: _494  and  _495
REMARK  195  A    between atoms: _498  and  _500
REMARK  196  A    between atoms: _500  and  _501
REMARK  197  A    between atoms: _500  and  _503
REMARK  198  A    between atoms: _503  and  _504
REMARK  199  A    between atoms: _507  and  _509
REMARK  200  A    between atoms: _509  and  _510
REMARK  201  A    between atoms: _509  and  _512
REMARK  202  A    between atoms: _512  and  _513
REMARK  203  A    between atoms: _518  and  _520
REMARK  204  A    between atoms: _520  and  _521
REMARK  205  A    between atoms: _524  and  _526
REMARK  206  A    between atoms: _526  and  _527
REMARK  207  A    between atoms: _526  and  _529
REMARK  208  A    between atoms: _532  and  _534
REMARK  209  A    between atoms: _534  and  _535
REMARK  210  A    between atoms: _538  and  _540
REMARK  211  A    between atoms: _540  and  _541
REMARK  212  A    between atoms: _540  and  _543
REMARK  213  A    between atoms: _543  and  _544
REMARK  214  A    between atoms: _547  and  _549
REMARK  215  A    between atoms: _549  and  _550
REMARK  216  A    between atoms: _549  and  _552
REMARK  217  A    between atoms: _552  and  _553
REMARK  218  A    between atoms: _553  and  _554
REMARK  219  A    between atoms: _554  and  _555
REMARK  220  A    between atoms: _564  and  _566
REMARK  221  A    between atoms: _566  and  _567
REMARK  222  A    between atoms: _566  and  _569
REMARK  223  A    between atoms: _569  and  _570
REMARK  224  A    between atoms: _573  and  _575
REMARK  225  A    between atoms: _575  and  _576
REMARK  226  A    between atoms: _579  and  _581
REMARK  227  A    between atoms: _581  and  _582
REMARK  228  A    between atoms: _581  and  _584
REMARK  229  A    between atoms: _586  and  _588
REMARK  230  A    between atoms: _588  and  _589
REMARK  231  A    between atoms: _592  and  _594
REMARK  232  A    between atoms: _594  and  _595
REMARK  233  A    between atoms: _594  and  _597
REMARK  234  A    between atoms: _597  and  _598
REMARK  235  A    between atoms: _598  and  _599
REMARK  236  A    between atoms: _602  and  _604
REMARK  237  A    between atoms: _604  and  _605
REMARK  238  A    between atoms: _604  and  _607
REMARK  239  A    between atoms: _607  and  _608
REMARK                            x       y       z     vdW  Elec       q    Type
REMARK                         _______ _______ _______ _____ _____    ______ ____
ROOT
ATOM      1  C   GLY A   3      30.154  25.143  11.624  0.00  0.00    +0.243 C 
ATOM      2  O   GLY A   3      29.349  25.873  12.193  0.00  0.00    -0.273 OA
ATOM      3  N   LEU A   4      31.476  25.279  11.738  0.00  0.00    -0.297 N 
ATOM      4  H   LEU A   4      32.108  24.606  11.259  0.00  0.00    +0.150 HD
ENDROOT
BRANCH   3   5
ATOM      5  CA  LEU A   4      32.048  26.378  12.539  0.00  0.00    +0.149 C 
BRANCH   5   6
ATOM      6  C   LEU A   4      32.366  27.687  11.792  0.00  0.00    +0.241 C 
ATOM      7  O   LEU A   4      33.152  28.545  12.287  0.00  0.00    -0.273 OA
ATOM      8  N   GLY A   5      31.757  27.820  10.627  0.00  0.00    -0.295 N 
ATOM      9  H   GLY A   5      31.124  27.056  10.316  0.00  0.00    +0.150 HD
BRANCH   8  10
ATOM     10  CA  GLY A   5      31.921  28.984   9.743  0.00  0.00    +0.176 C 
BRANCH  10  11
ATOM     11  C   GLY A   5      33.348  29.149   9.270  0.00  0.00    +0.243 C 
ATOM     12  O   GLY A   5      34.118  28.176   9.187  0.00  0.00    -0.273 OA
ATOM     13  N   ILE A   6      33.693  30.424   8.988  0.00  0.00    -0.298 N 
ATOM     14  H   ILE A   6      32.946  31.147   9.034  0.00  0.00    +0.150 HD
BRANCH  13  15
ATOM     15  CA  ILE A   6      35.033  30.861   8.624  0.00  0.00    +0.137 C 
BRANCH  15  16
ATOM     16  CB  ILE A   6      34.970  32.477   8.648  0.00  0.00    +0.026 C 
ATOM     17  CG2 ILE A   6      36.281  33.163   9.037  0.00  0.00    +0.002 C 
BRANCH  16  18
ATOM     18  CG1 ILE A   6      34.419  32.907   7.307  0.00  0.00    +0.002 C 
ATOM     19  CD1 ILE A   6      34.586  31.898   6.238  0.00  0.00    +0.000 C 
ENDBRANCH  16  18
ENDBRANCH  15  16
BRANCH  15  20
ATOM     20  C   ILE A   6      36.081  30.353   9.556  0.00  0.00    +0.227 C 
ATOM     21  O   ILE A   6      37.195  30.039   9.155  0.00  0.00    -0.286 OA
ENDBRANCH  15  20
ENDBRANCH  13  15
ENDBRANCH  10  11
ENDBRANCH   8  10
ENDBRANCH   5   6
BRANCH   5  22
ATOM     22  CB  LEU A   4      33.264  25.896  13.280  0.00  0.00    +0.029 C 
BRANCH  22  23
ATOM     23  CG  LEU A   4      33.039  24.617  14.115  0.00  0.00    +0.002 C 
ATOM     24  CD2 LEU A   4      31.957  24.911  15.078  0.00  0.00    +0.000 C 
ATOM     25  CD1 LEU A   4      34.356  24.268  14.879  0.00  0.00    +0.000 C 
ENDBRANCH  22  23
ENDBRANCH   5  22
ENDBRANCH   3   5
BRANCH   1  26
ATOM     26  CA  GLY A   3      29.630  24.026  10.734  0.00  0.00    +0.176 C 
BRANCH  26  29
ATOM     27  C   VAL A   2      31.199  22.300  10.610  0.00  0.00    +0.241 C 
ATOM     28  O   VAL A   2      31.099  22.149  11.798  0.00  0.00    -0.273 OA
ATOM     29  N   GLY A   3      30.622  23.306   9.991  0.00  0.00    -0.295 N 
ATOM     30  H   GLY A   3      30.872  23.565   9.015  0.00  0.00    +0.150 HD
BRANCH  27  31
ATOM     31  CA  VAL A   2      32.032  21.305   9.768  0.00  0.00    +0.148 C 
BRANCH  31  33
ATOM     32  C   ILE A   1      34.437  20.998   9.876  0.00  0.00    +0.238 C 
ATOM     33  N   VAL A   2      33.242  21.003  10.484  0.00  0.00    -0.297 N 
ATOM     34  H   VAL A   2      33.189  20.783  11.499  0.00  0.00    +0.150 HD
ATOM     35  O   ILE A   1      34.639  21.426   8.736  0.00  0.00    -0.274 OA
BRANCH  32  36
ATOM     36  CA  ILE A   1      35.610  20.470  10.682  0.00  0.00    +0.145 C 
BRANCH  36  37
ATOM     37  CB  ILE A   1      36.598  21.670  10.984  0.00  0.00    +0.025 C 
ATOM     38  CG2 ILE A   1      35.888  22.759  11.789  0.00  0.00    +0.002 C 
BRANCH  37  39
ATOM     39  CG1 ILE A   1      37.880  21.148  11.673  0.00  0.00    +0.002 C 
ATOM     40  CD1 ILE A   1      38.994  22.271  11.861  0.00  0.00    +0.000 C 
ENDBRANCH  37  39
ENDBRANCH  36  37
BRANCH  36  41
ATOM     41  N   ILE A   1      36.244  19.499   9.817  0.00  0.00    -0.238 NA
ATOM     42  H   ILE A   1      36.491  19.777   8.846  0.00  0.00    +0.142 HD
ENDBRANCH  36  41
ENDBRANCH  32  36
ENDBRANCH  31  33
BRANCH  31  43
ATOM     43  CB  VAL A   2      31.265  19.927   9.561  0.00  0.00    +0.027 C 
ATOM     44  CG2 VAL A   2      29.739  20.017   9.594  0.00  0.00    +0.002 C 
ATOM     45  CG1 VAL A   2      31.827  19.155   8.349  0.00  0.00    +0.002 C 
ENDBRANCH  31  43
ENDBRANCH  27  31
ENDBRANCH  26  29
ENDBRANCH   1  26
TORSDOF 19
REMARK  Name = ../refined-set-2016/3n86/3n86_pocket.pdb
REMARK  239 active torsions:
REMARK  status: ('A' for Active; 'I' for Inactive)
REMARK    1  A    between atoms: _1  and  _3
REMARK    2  A    between atoms: _3  and  _4
REMARK    3  A    between atoms: _3  and  _6
REMARK    4  A    between atoms: _6  and  _7
REMARK    5  A    between atoms: _12  and  _14
REMARK    6  A    between atoms: _14  and  _15
REMARK    7  A    between atoms: _18  and  _19
REMARK    8  A    between atoms: _24  and  _26
REMARK    9  A    between atoms: _26  and  _27
REMARK   10  A    between atoms: _26  and  _29
REMARK   11  A    between atoms: _29  and  _30
REMARK   12  A    between atoms: _35  and  _37
REMARK   13  A    between atoms: _37  and  _38
REMARK   14  A    between atoms: _37  and  _40
REMARK   15  A    between atoms: _40  and  _41
REMARK   16  A    between atoms: _44  and  _46
REMARK   17  A    between atoms: _46  and  _47
REMARK   18  A    between atoms: _49  and  _51
REMARK   19  A    between atoms: _51  and  _52
REMARK   20  A    between atoms: _51  and  _54
REMARK   21  A    between atoms: _54  and  _55
REMARK   22  A    between atoms: _55  and  _56
REMARK   23  A    between atoms: _56  and  _57
REMARK   24  A    between atoms: _66  and  _68
REMARK   25  A    between atoms: _68  and  _69
REMARK   26  A    between atoms: _68  and  _71
REMARK   27  A    between atoms: _71  and  _72
REMARK   28  A    between atoms: _75  and  _77
REMARK   29  A    between atoms: _77  and  _78
REMARK   30  A    between atoms: _80  and  _82
REMARK   31  A    between atoms: _82  and  _83
REMARK   32  A    between atoms: _82  and  _85
REMARK   33  A    between atoms: _85  and  _86
REMARK   34  A    between atoms: _86  and  _87
REMARK   35  A    between atoms: _87  and  _88
REMARK   36  A    between atoms: _97  and  _99
REMARK   37  A    between atoms: _99  and  _100
REMARK   38  A    between atoms: _99  and  _102
REMARK   39  A    between atoms: _102  and  _103
REMARK   40  A    between atoms: _103  and  _104
REMARK   41  A    between atoms: _104  and  _105
REMARK   42  A    between atoms: _114  and  _116
REMARK   43  A    between atoms: _116  and  _117
REMARK   44  A    between atoms: _116  and  _119
REMARK   45  A    between atoms: _119  and  _120
REMARK   46  A    between atoms: _120  and  _121
REMARK   47  A    between atoms: _125  and  _126
REMARK   48  A    between atoms: _131  and  _133
REMARK   49  A    between atoms: _133  and  _134
REMARK   50  A    between atoms: _133  and  _136
REMARK   51  A    between atoms: _139  and  _141
REMARK   52  A    between atoms: _141  and  _142
REMARK   53  A    between atoms: _141  and  _144
REMARK   54  A    between atoms: _144  and  _145
REMARK   55  A    between atoms: _150  and  _151
REMARK   56  A    between atoms: _153  and  _155
REMARK   57  A    between atoms: _155  and  _156
REMARK   58  A    between atoms: _158  and  _160
REMARK   59  A    between atoms: _160  and  _161
REMARK   60  A    between atoms: _160  and  _163
REMARK   61  A    between atoms: _163  and  _164
REMARK   62  A    between atoms: _164  and  _165
REMARK   63  A    between atoms: _170  and  _172
REMARK   64  A    between atoms: _172  and  _173
REMARK   65  A    between atoms: _172  and  _175
REMARK   66  A    between atoms: _175  and  _176
REMARK   67  A    between atoms: _179  and  _181
REMARK   68  A    between atoms: _181  and  _182
REMARK   69  A    between atoms: _181  and  _184
REMARK   70  A    between atoms: _184  and  _185
REMARK   71  A    between atoms: _188  and  _190
REMARK   72  A    between atoms: _190  and  _191
REMARK   73  A    between atoms: _190  and  _193
REMARK   74  A    between atoms: _193  and  _194
REMARK   75  A    between atoms: _199  and  _201
REMARK   76  A    between atoms: _201  and  _202
REMARK   77  A    between atoms: _205  and  _207
REMARK   78  A    between atoms: _207  and  _208
REMARK   79  A    between atoms: _210  and  _212
REMARK   80  A    between atoms: _212  and  _213
REMARK   81  A    between atoms: _215  and  _217
REMARK   82  A    between atoms: _217  and  _218
REMARK   83  A    between atoms: _217  and  _220
REMARK   84  A    between atoms: _220  and  _221
REMARK   85  A    between atoms: _224  and  _226
REMARK   86  A    between atoms: _226  and  _227
REMARK   87  A    between atoms: _226  and  _229
REMARK   88  A    between atoms: _229  and  _230
REMARK   89  A    between atoms: _233  and  _235
REMARK   90  A    between atoms: _235  and  _236
REMARK   91  A    between atoms: _235  and  _238
REMARK   92  A    between atoms: _238  and  _239
REMARK   93  A    between atoms: _244  and  _246
REMARK   94  A    between atoms: _246  and  _247
REMARK   95  A    between atoms: _246  and  _249
REMARK   96  A    between atoms: _249  and  _250
REMARK   97  A    between atoms: _253  and  _255
REMARK   98  A    between atoms: _255  and  _256
REMARK   99  A    between atoms: _255  and  _258
REMARK  100  A    between atoms: _258  and  _259
REMARK  101  A    between atoms: _259  and  _260
REMARK  102  A    between atoms: _263  and  _265
REMARK  103  A    between atoms: _265  and  _266
REMARK  104  A    between atoms: _265  and  _268
REMARK  105  A    between atoms: _271  and  _273
REMARK  106  A    between atoms: _273  and  _274
REMARK  107  A    between atoms: _273  and  _276
REMARK  108  A    between atoms: _276  and  _277
REMARK  109  A    between atoms: _282  and  _284
REMARK  110  A    between atoms: _284  and  _285
REMARK  111  A    between atoms: _284  and  _287
REMARK  112  A    between atoms: _287  and  _288
REMARK  113  A    between atoms: _291  and  _293
REMARK  114  A    between atoms: _293  and  _294
REMARK  115  A    between atoms: _293  and  _296
REMARK  116  A    between atoms: _296  and  _297
REMARK  117  A    between atoms: _299  and  _301
REMARK  118  A    between atoms: _301  and  _302
REMARK  119  A    between atoms: _301  and  _304
REMARK  120  A    between atoms: _304  and  _305
REMARK  121  A    between atoms: _310  and  _312
REMARK  122  A    between atoms: _312  and  _313
REMARK  123  A    between atoms: _312  and  _315
REMARK  124  A    between atoms: _318  and  _320
REMARK  125  A    between atoms: _320  and  _321
REMARK  126  A    between atoms: _320  and  _323
REMARK  127  A    between atoms: _323  and  _324
REMARK  128  A    between atoms: _329  and  _331
REMARK  129  A    between atoms: _331  and  _332
REMARK  130  A    between atoms: _331  and  _334
REMARK  131  A    between atoms: _334  and  _335
REMARK  132  A    between atoms: _335  and  _336
REMARK  133  A    between atoms: _336  and  _337
REMARK  134  A    between atoms: _346  and  _348
REMARK  135  A    between atoms: _348  and  _349
REMARK  136  A    between atoms: _348  and  _351
REMARK  137  A    between atoms: _351  and  _352
REMARK  138  A    between atoms: _352  and  _353
REMARK  139  A    between atoms: _356  and  _358
REMARK  140  A    between atoms: _358  and  _359
REMARK  141  A    between atoms: _358  and  _361
REMARK  142  A    between atoms: _361  and  _362
REMARK  143  A    between atoms: _368  and  _370
REMARK  144  A    between atoms: _370  and  _371
REMARK  145  A    between atoms: _370  and  _373
REMARK  146  A    between atoms: _373  and  _374
REMARK  147  A    between atoms: _374  and  _375
REMARK  148  A    between atoms: _375  and  _376
REMARK  149  A    between atoms: _385  and  _387
REMARK  150  A    between atoms: _387  and  _388
REMARK  151  A    between atoms: _387  and  _390
REMARK  152  A    between atoms: _390  and  _391
REMARK  153  A    between atoms: _391  and  _392
REMARK  154  A    between atoms: _392  and  _393
REMARK  155  A    between atoms: _402  and  _404
REMARK  156  A    between atoms: _404  and  _405
REMARK  157  A    between atoms: _404  and  _407
REMARK  158  A    between atoms: _407  and  _408
REMARK  159  A    between atoms: _413  and  _415
REMARK  160  A    between atoms: _415  and  _416
REMARK  161  A    between atoms: _415  and  _418
REMARK  162  A    between atoms: _418  and  _419
REMARK  163  A    between atoms: _421  and  _423
REMARK  164  A    between atoms: _423  and  _424
REMARK  165  A    between atoms: _423  and  _426
REMARK  166  A    between atoms: _426  and  _427
REMARK  167  A    between atoms: _430  and  _432
REMARK  168  A    between atoms: _432  and  _433
REMARK  169  A    between atoms: _432  and  _435
REMARK  170  A    between atoms: _435  and  _436
REMARK  171  A    between atoms: _439  and  _441
REMARK  172  A    between atoms: _441  and  _442
REMARK  173  A    between atoms: _441  and  _444
REMARK  174  A    between atoms: _447  and  _449
REMARK  175  A    between atoms: _449  and  _450
REMARK  176  A    between atoms: _452  and  _454
REMARK  177  A    between atoms: _454  and  _455
REMARK  178  A    between atoms: _454  and  _457
REMARK  179  A    between atoms: _457  and  _458
REMARK  180  A    between atoms: _461  and  _463
REMARK  181  A    between atoms: _463  and  _464
REMARK  182  A    between atoms: _466  and  _468
REMARK  183  A    between atoms: _468  and  _469
REMARK  184  A    between atoms: _468  and  _471
REMARK  185  A    between atoms: _471  and  _472
REMARK  186  A    between atoms: _475  and  _477
REMARK  187  A    between atoms: _477  and  _478
REMARK  188  A    between atoms: _477  and  _480
REMARK  189  A    between atoms: _480  and  _481
REMARK  190  A    between atoms: _486  and  _487
REMARK  191  A    between atoms: _489  and  _491
REMARK  192  A    between atoms: _491  and  _492
REMARK  193  A    between atoms: _491  and  _494
REMARK  194  A    between atoms: _494  and  _495
REMARK  195  A    between atoms: _498  and  _500
REMARK  196  A    between atoms: _500  and  _501
REMARK  197  A    between atoms: _500  and  _503
REMARK  198  A    between atoms: _503  and  _504
REMARK  199  A    between atoms: _507  and  _509
REMARK  200  A    between atoms: _509  and  _510
REMARK  201  A    between atoms: _509  and  _512
REMARK  202  A    between atoms: _512  and  _513
REMARK  203  A    between atoms: _518  and  _520
REMARK  204  A    between atoms: _520  and  _521
REMARK  205  A    between atoms: _524  and  _526
REMARK  206  A    between atoms: _526  and  _527
REMARK  207  A    between atoms: _526  and  _529
REMARK  208  A    between atoms: _532  and  _534
REMARK  209  A    between atoms: _534  and  _535
REMARK  210  A    between atoms: _538  and  _540
REMARK  211  A    between atoms: _540  and  _541
REMARK  212  A    between atoms: _540  and  _543
REMARK  213  A    between atoms: _543  and  _544
REMARK  214  A    between atoms: _547  and  _549
REMARK  215  A    between atoms: _549  and  _550
REMARK  216  A    between atoms: _549  and  _552
REMARK  217  A    between atoms: _552  and  _553
REMARK  218  A    between atoms: _553  and  _554
REMARK  219  A    between atoms: _554  and  _555
REMARK  220  A    between atoms: _564  and  _566
REMARK  221  A    between atoms: _566  and  _567
REMARK  222  A    between atoms: _566  and  _569
REMARK  223  A    between atoms: _569  and  _570
REMARK  224  A    between atoms: _573  and  _575
REMARK  225  A    between atoms: _575  and  _576
REMARK  226  A    between atoms: _579  and  _581
REMARK  227  A    between atoms: _581  and  _582
REMARK  228  A    between atoms: _581  and  _584
REMARK  229  A    between atoms: _586  and  _588
REMARK  230  A    between atoms: _588  and  _589
REMARK  231  A    between atoms: _592  and  _594
REMARK  232  A    between atoms: _594  and  _595
REMARK  233  A    between atoms: _594  and  _597
REMARK  234  A    between atoms: _597  and  _598
REMARK  235  A    between atoms: _598  and  _599
REMARK  236  A    between atoms: _602  and  _604
REMARK  237  A    between atoms: _604  and  _605
REMARK  238  A    between atoms: _604  and  _607
REMARK  239  A    between atoms: _607  and  _608
REMARK                            x       y       z     vdW  Elec       q    Type
REMARK                         _______ _______ _______ _____ _____    ______ ____
ROOT
ATOM      1  CG  TYR A   1      38.888  28.218   6.138  0.00  0.00    -0.020 A 
ATOM      2  CD2 TYR A   1      37.589  28.743   6.121  0.00  0.00    -0.001 A 
ATOM      3  CE2 TYR A   1      36.718  28.527   5.022  0.00  0.00    +0.036 A 
ATOM      4  CZ  TYR A   1      37.189  27.770   3.912  0.00  0.00    +0.134 A 
ATOM      5  CE1 TYR A   1      38.500  27.290   3.896  0.00  0.00    +0.036 A 
ATOM      6  CD1 TYR A   1      39.339  27.502   5.005  0.00  0.00    -0.001 A 
ENDROOT
BRANCH   4   7
ATOM      7  OH  TYR A   1      36.406  27.529   2.799  0.00  0.00    -0.506 OA
ATOM      8  HH  TYR A   1      36.827  27.944   2.005  0.00  0.00    +0.292 HD
ENDBRANCH   4   7
BRANCH   1   9
ATOM      9  CB  TYR A   1      39.804  28.477   7.294  0.00  0.00    +0.051 C 
BRANCH   9  10
ATOM     10  CA  TYR A   1      39.846  27.356   8.352  0.00  0.00    +0.137 C 
BRANCH  10  11
ATOM     11  N   TYR A   1      38.536  27.208   8.996  0.00  0.00    -0.239 NA
ATOM     12  H   TYR A   1      37.749  27.821   8.702  0.00  0.00    +0.142 HD
ENDBRANCH  10  11
BRANCH  10  13
ATOM     13  C   TYR A   1      40.927  27.701   9.370  0.00  0.00    +0.224 C 
ATOM     14  O   TYR A   1      42.032  27.154   9.323  0.00  0.00    -0.287 OA
ENDBRANCH  10  13
ENDBRANCH   9  10
ENDBRANCH   1   9
TORSDOF 5
REMARK  Name = ../refined-set-2016/3n86/3n86_pocket.pdb
REMARK  239 active torsions:
REMARK  status: ('A' for Active; 'I' for Inactive)
REMARK    1  A    between atoms: _1  and  _3
REMARK    2  A    between atoms: _3  and  _4
REMARK    3  A    between atoms: _3  and  _6
REMARK    4  A    between atoms: _6  and  _7
REMARK    5  A    between atoms: _12  and  _14
REMARK    6  A    between atoms: _14  and  _15
REMARK    7  A    between atoms: _18  and  _19
REMARK    8  A    between atoms: _24  and  _26
REMARK    9  A    between atoms: _26  and  _27
REMARK   10  A    between atoms: _26  and  _29
REMARK   11  A    between atoms: _29  and  _30
REMARK   12  A    between atoms: _35  and  _37
REMARK   13  A    between atoms: _37  and  _38
REMARK   14  A    between atoms: _37  and  _40
REMARK   15  A    between atoms: _40  and  _41
REMARK   16  A    between atoms: _44  and  _46
REMARK   17  A    between atoms: _46  and  _47
REMARK   18  A    between atoms: _49  and  _51
REMARK   19  A    between atoms: _51  and  _52
REMARK   20  A    between atoms: _51  and  _54
REMARK   21  A    between atoms: _54  and  _55
REMARK   22  A    between atoms: _55  and  _56
REMARK   23  A    between atoms: _56  and  _57
REMARK   24  A    between atoms: _66  and  _68
REMARK   25  A    between atoms: _68  and  _69
REMARK   26  A    between atoms: _68  and  _71
REMARK   27  A    between atoms: _71  and  _72
REMARK   28  A    between atoms: _75  and  _77
REMARK   29  A    between atoms: _77  and  _78
REMARK   30  A    between atoms: _80  and  _82
REMARK   31  A    between atoms: _82  and  _83
REMARK   32  A    between atoms: _82  and  _85
REMARK   33  A    between atoms: _85  and  _86
REMARK   34  A    between atoms: _86  and  _87
REMARK   35  A    between atoms: _87  and  _88
REMARK   36  A    between atoms: _97  and  _99
REMARK   37  A    between atoms: _99  and  _100
REMARK   38  A    between atoms: _99  and  _102
REMARK   39  A    between atoms: _102  and  _103
REMARK   40  A    between atoms: _103  and  _104
REMARK   41  A    between atoms: _104  and  _105
REMARK   42  A    between atoms: _114  and  _116
REMARK   43  A    between atoms: _116  and  _117
REMARK   44  A    between atoms: _116  and  _119
REMARK   45  A    between atoms: _119  and  _120
REMARK   46  A    between atoms: _120  and  _121
REMARK   47  A    between atoms: _125  and  _126
REMARK   48  A    between atoms: _131  and  _133
REMARK   49  A    between atoms: _133  and  _134
REMARK   50  A    between atoms: _133  and  _136
REMARK   51  A    between atoms: _139  and  _141
REMARK   52  A    between atoms: _141  and  _142
REMARK   53  A    between atoms: _141  and  _144
REMARK   54  A    between atoms: _144  and  _145
REMARK   55  A    between atoms: _150  and  _151
REMARK   56  A    between atoms: _153  and  _155
REMARK   57  A    between atoms: _155  and  _156
REMARK   58  A    between atoms: _158  and  _160
REMARK   59  A    between atoms: _160  and  _161
REMARK   60  A    between atoms: _160  and  _163
REMARK   61  A    between atoms: _163  and  _164
REMARK   62  A    between atoms: _164  and  _165
REMARK   63  A    between atoms: _170  and  _172
REMARK   64  A    between atoms: _172  and  _173
REMARK   65  A    between atoms: _172  and  _175
REMARK   66  A    between atoms: _175  and  _176
REMARK   67  A    between atoms: _179  and  _181
REMARK   68  A    between atoms: _181  and  _182
REMARK   69  A    between atoms: _181  and  _184
REMARK   70  A    between atoms: _184  and  _185
REMARK   71  A    between atoms: _188  and  _190
REMARK   72  A    between atoms: _190  and  _191
REMARK   73  A    between atoms: _190  and  _193
REMARK   74  A    between atoms: _193  and  _194
REMARK   75  A    between atoms: _199  and  _201
REMARK   76  A    between atoms: _201  and  _202
REMARK   77  A    between atoms: _205  and  _207
REMARK   78  A    between atoms: _207  and  _208
REMARK   79  A    between atoms: _210  and  _212
REMARK   80  A    between atoms: _212  and  _213
REMARK   81  A    between atoms: _215  and  _217
REMARK   82  A    between atoms: _217  and  _218
REMARK   83  A    between atoms: _217  and  _220
REMARK   84  A    between atoms: _220  and  _221
REMARK   85  A    between atoms: _224  and  _226
REMARK   86  A    between atoms: _226  and  _227
REMARK   87  A    between atoms: _226  and  _229
REMARK   88  A    between atoms: _229  and  _230
REMARK   89  A    between atoms: _233  and  _235
REMARK   90  A    between atoms: _235  and  _236
REMARK   91  A    between atoms: _235  and  _238
REMARK   92  A    between atoms: _238  and  _239
REMARK   93  A    between atoms: _244  and  _246
REMARK   94  A    between atoms: _246  and  _247
REMARK   95  A    between atoms: _246  and  _249
REMARK   96  A    between atoms: _249  and  _250
REMARK   97  A    between atoms: _253  and  _255
REMARK   98  A    between atoms: _255  and  _256
REMARK   99  A    between atoms: _255  and  _258
REMARK  100  A    between atoms: _258  and  _259
REMARK  101  A    between atoms: _259  and  _260
REMARK  102  A    between atoms: _263  and  _265
REMARK  103  A    between atoms: _265  and  _266
REMARK  104  A    between atoms: _265  and  _268
REMARK  105  A    between atoms: _271  and  _273
REMARK  106  A    between atoms: _273  and  _274
REMARK  107  A    between atoms: _273  and  _276
REMARK  108  A    between atoms: _276  and  _277
REMARK  109  A    between atoms: _282  and  _284
REMARK  110  A    between atoms: _284  and  _285
REMARK  111  A    between atoms: _284  and  _287
REMARK  112  A    between atoms: _287  and  _288
REMARK  113  A    between atoms: _291  and  _293
REMARK  114  A    between atoms: _293  and  _294
REMARK  115  A    between atoms: _293  and  _296
REMARK  116  A    between atoms: _296  and  _297
REMARK  117  A    between atoms: _299  and  _301
REMARK  118  A    between atoms: _301  and  _302
REMARK  119  A    between atoms: _301  and  _304
REMARK  120  A    between atoms: _304  and  _305
REMARK  121  A    between atoms: _310  and  _312
REMARK  122  A    between atoms: _312  and  _313
REMARK  123  A    between atoms: _312  and  _315
REMARK  124  A    between atoms: _318  and  _320
REMARK  125  A    between atoms: _320  and  _321
REMARK  126  A    between atoms: _320  and  _323
REMARK  127  A    between atoms: _323  and  _324
REMARK  128  A    between atoms: _329  and  _331
REMARK  129  A    between atoms: _331  and  _332
REMARK  130  A    between atoms: _331  and  _334
REMARK  131  A    between atoms: _334  and  _335
REMARK  132  A    between atoms: _335  and  _336
REMARK  133  A    between atoms: _336  and  _337
REMARK  134  A    between atoms: _346  and  _348
REMARK  135  A    between atoms: _348  and  _349
REMARK  136  A    between atoms: _348  and  _351
REMARK  137  A    between atoms: _351  and  _352
REMARK  138  A    between atoms: _352  and  _353
REMARK  139  A    between atoms: _356  and  _358
REMARK  140  A    between atoms: _358  and  _359
REMARK  141  A    between atoms: _358  and  _361
REMARK  142  A    between atoms: _361  and  _362
REMARK  143  A    between atoms: _368  and  _370
REMARK  144  A    between atoms: _370  and  _371
REMARK  145  A    between atoms: _370  and  _373
REMARK  146  A    between atoms: _373  and  _374
REMARK  147  A    between atoms: _374  and  _375
REMARK  148  A    between atoms: _375  and  _376
REMARK  149  A    between atoms: _385  and  _387
REMARK  150  A    between atoms: _387  and  _388
REMARK  151  A    between atoms: _387  and  _390
REMARK  152  A    between atoms: _390  and  _391
REMARK  153  A    between atoms: _391  and  _392
REMARK  154  A    between atoms: _392  and  _393
REMARK  155  A    between atoms: _402  and  _404
REMARK  156  A    between atoms: _404  and  _405
REMARK  157  A    between atoms: _404  and  _407
REMARK  158  A    between atoms: _407  and  _408
REMARK  159  A    between atoms: _413  and  _415
REMARK  160  A    between atoms: _415  and  _416
REMARK  161  A    between atoms: _415  and  _418
REMARK  162  A    between atoms: _418  and  _419
REMARK  163  A    between atoms: _421  and  _423
REMARK  164  A    between atoms: _423  and  _424
REMARK  165  A    between atoms: _423  and  _426
REMARK  166  A    between atoms: _426  and  _427
REMARK  167  A    between atoms: _430  and  _432
REMARK  168  A    between atoms: _432  and  _433
REMARK  169  A    between atoms: _432  and  _435
REMARK  170  A    between atoms: _435  and  _436
REMARK  171  A    between atoms: _439  and  _441
REMARK  172  A    between atoms: _441  and  _442
REMARK  173  A    between atoms: _441  and  _444
REMARK  174  A    between atoms: _447  and  _449
REMARK  175  A    between atoms: _449  and  _450
REMARK  176  A    between atoms: _452  and  _454
REMARK  177  A    between atoms: _454  and  _455
REMARK  178  A    between atoms: _454  and  _457
REMARK  179  A    between atoms: _457  and  _458
REMARK  180  A    between atoms: _461  and  _463
REMARK  181  A    between atoms: _463  and  _464
REMARK  182  A    between atoms: _466  and  _468
REMARK  183  A    between atoms: _468  and  _469
REMARK  184  A    between atoms: _468  and  _471
REMARK  185  A    between atoms: _471  and  _472
REMARK  186  A    between atoms: _475  and  _477
REMARK  187  A    between atoms: _477  and  _478
REMARK  188  A    between atoms: _477  and  _480
REMARK  189  A    between atoms: _480  and  _481
REMARK  190  A    between atoms: _486  and  _487
REMARK  191  A    between atoms: _489  and  _491
REMARK  192  A    between atoms: _491  and  _492
REMARK  193  A    between atoms: _491  and  _494
REMARK  194  A    between atoms: _494  and  _495
REMARK  195  A    between atoms: _498  and  _500
REMARK  196  A    between atoms: _500  and  _501
REMARK  197  A    between atoms: _500  and  _503
REMARK  198  A    between atoms: _503  and  _504
REMARK  199  A    between atoms: _507  and  _509
REMARK  200  A    between atoms: _509  and  _510
REMARK  201  A    between atoms: _509  and  _512
REMARK  202  A    between atoms: _512  and  _513
REMARK  203  A    between atoms: _518  and  _520
REMARK  204  A    between atoms: _520  and  _521
REMARK  205  A    between atoms: _524  and  _526
REMARK  206  A    between atoms: _526  and  _527
REMARK  207  A    between atoms: _526  and  _529
REMARK  208  A    between atoms: _532  and  _534
REMARK  209  A    between atoms: _534  and  _535
REMARK  210  A    between atoms: _538  and  _540
REMARK  211  A    between atoms: _540  and  _541
REMARK  212  A    between atoms: _540  and  _543
REMARK  213  A    between atoms: _543  and  _544
REMARK  214  A    between atoms: _547  and  _549
REMARK  215  A    between atoms: _549  and  _550
REMARK  216  A    between atoms: _549  and  _552
REMARK  217  A    between atoms: _552  and  _553
REMARK  218  A    between atoms: _553  and  _554
REMARK  219  A    between atoms: _554  and  _555
REMARK  220  A    between atoms: _564  and  _566
REMARK  221  A    between atoms: _566  and  _567
REMARK  222  A    between atoms: _566  and  _569
REMARK  223  A    between atoms: _569  and  _570
REMARK  224  A    between atoms: _573  and  _575
REMARK  225  A    between atoms: _575  and  _576
REMARK  226  A    between atoms: _579  and  _581
REMARK  227  A    between atoms: _581  and  _582
REMARK  228  A    between atoms: _581  and  _584
REMARK  229  A    between atoms: _586  and  _588
REMARK  230  A    between atoms: _588  and  _589
REMARK  231  A    between atoms: _592  and  _594
REMARK  232  A    between atoms: _594  and  _595
REMARK  233  A    between atoms: _594  and  _597
REMARK  234  A    between atoms: _597  and  _598
REMARK  235  A    between atoms: _598  and  _599
REMARK  236  A    between atoms: _602  and  _604
REMARK  237  A    between atoms: _604  and  _605
REMARK  238  A    between atoms: _604  and  _607
REMARK  239  A    between atoms: _607  and  _608
REMARK                            x       y       z     vdW  Elec       q    Type
REMARK                         _______ _______ _______ _____ _____    ______ ____
ROOT
ATOM      1  CA  LEU A   1      29.050  28.267 -13.305  0.00  0.00    +0.133 C 
ENDROOT
BRANCH   1   2
ATOM      2  N   LEU A   1      29.138  27.598 -14.611  0.00  0.00    -0.239 NA
ATOM      3  H   LEU A   1      29.853  26.856 -14.754  0.00  0.00    +0.142 HD
ENDBRANCH   1   2
BRANCH   1   4
ATOM      4  C   LEU A   1      29.239  29.804 -13.447  0.00  0.00    +0.224 C 
ATOM      5  O   LEU A   1      28.465  30.580 -12.845  0.00  0.00    -0.287 OA
ENDBRANCH   1   4
BRANCH   1   6
ATOM      6  CB  LEU A   1      30.065  27.702 -12.298  0.00  0.00    +0.025 C 
BRANCH   6   7
ATOM      7  CG  LEU A   1      29.859  26.211 -11.924  0.00  0.00    +0.002 C 
ATOM      8  CD2 LEU A   1      28.584  26.074 -11.123  0.00  0.00    +0.000 C 
ATOM      9  CD1 LEU A   1      31.003  25.704 -11.142  0.00  0.00    +0.000 C 
ENDBRANCH   6   7
ENDBRANCH   1   6
TORSDOF 4
REMARK  Name = ../refined-set-2016/3n86/3n86_pocket.pdb
REMARK  239 active torsions:
REMARK  status: ('A' for Active; 'I' for Inactive)
REMARK    1  A    between atoms: _1  and  _3
REMARK    2  A    between atoms: _3  and  _4
REMARK    3  A    between atoms: _3  and  _6
REMARK    4  A    between atoms: _6  and  _7
REMARK    5  A    between atoms: _12  and  _14
REMARK    6  A    between atoms: _14  and  _15
REMARK    7  A    between atoms: _18  and  _19
REMARK    8  A    between atoms: _24  and  _26
REMARK    9  A    between atoms: _26  and  _27
REMARK   10  A    between atoms: _26  and  _29
REMARK   11  A    between atoms: _29  and  _30
REMARK   12  A    between atoms: _35  and  _37
REMARK   13  A    between atoms: _37  and  _38
REMARK   14  A    between atoms: _37  and  _40
REMARK   15  A    between atoms: _40  and  _41
REMARK   16  A    between atoms: _44  and  _46
REMARK   17  A    between atoms: _46  and  _47
REMARK   18  A    between atoms: _49  and  _51
REMARK   19  A    between atoms: _51  and  _52
REMARK   20  A    between atoms: _51  and  _54
REMARK   21  A    between atoms: _54  and  _55
REMARK   22  A    between atoms: _55  and  _56
REMARK   23  A    between atoms: _56  and  _57
REMARK   24  A    between atoms: _66  and  _68
REMARK   25  A    between atoms: _68  and  _69
REMARK   26  A    between atoms: _68  and  _71
REMARK   27  A    between atoms: _71  and  _72
REMARK   28  A    between atoms: _75  and  _77
REMARK   29  A    between atoms: _77  and  _78
REMARK   30  A    between atoms: _80  and  _82
REMARK   31  A    between atoms: _82  and  _83
REMARK   32  A    between atoms: _82  and  _85
REMARK   33  A    between atoms: _85  and  _86
REMARK   34  A    between atoms: _86  and  _87
REMARK   35  A    between atoms: _87  and  _88
REMARK   36  A    between atoms: _97  and  _99
REMARK   37  A    between atoms: _99  and  _100
REMARK   38  A    between atoms: _99  and  _102
REMARK   39  A    between atoms: _102  and  _103
REMARK   40  A    between atoms: _103  and  _104
REMARK   41  A    between atoms: _104  and  _105
REMARK   42  A    between atoms: _114  and  _116
REMARK   43  A    between atoms: _116  and  _117
REMARK   44  A    between atoms: _116  and  _119
REMARK   45  A    between atoms: _119  and  _120
REMARK   46  A    between atoms: _120  and  _121
REMARK   47  A    between atoms: _125  and  _126
REMARK   48  A    between atoms: _131  and  _133
REMARK   49  A    between atoms: _133  and  _134
REMARK   50  A    between atoms: _133  and  _136
REMARK   51  A    between atoms: _139  and  _141
REMARK   52  A    between atoms: _141  and  _142
REMARK   53  A    between atoms: _141  and  _144
REMARK   54  A    between atoms: _144  and  _145
REMARK   55  A    between atoms: _150  and  _151
REMARK   56  A    between atoms: _153  and  _155
REMARK   57  A    between atoms: _155  and  _156
REMARK   58  A    between atoms: _158  and  _160
REMARK   59  A    between atoms: _160  and  _161
REMARK   60  A    between atoms: _160  and  _163
REMARK   61  A    between atoms: _163  and  _164
REMARK   62  A    between atoms: _164  and  _165
REMARK   63  A    between atoms: _170  and  _172
REMARK   64  A    between atoms: _172  and  _173
REMARK   65  A    between atoms: _172  and  _175
REMARK   66  A    between atoms: _175  and  _176
REMARK   67  A    between atoms: _179  and  _181
REMARK   68  A    between atoms: _181  and  _182
REMARK   69  A    between atoms: _181  and  _184
REMARK   70  A    between atoms: _184  and  _185
REMARK   71  A    between atoms: _188  and  _190
REMARK   72  A    between atoms: _190  and  _191
REMARK   73  A    between atoms: _190  and  _193
REMARK   74  A    between atoms: _193  and  _194
REMARK   75  A    between atoms: _199  and  _201
REMARK   76  A    between atoms: _201  and  _202
REMARK   77  A    between atoms: _205  and  _207
REMARK   78  A    between atoms: _207  and  _208
REMARK   79  A    between atoms: _210  and  _212
REMARK   80  A    between atoms: _212  and  _213
REMARK   81  A    between atoms: _215  and  _217
REMARK   82  A    between atoms: _217  and  _218
REMARK   83  A    between atoms: _217  and  _220
REMARK   84  A    between atoms: _220  and  _221
REMARK   85  A    between atoms: _224  and  _226
REMARK   86  A    between atoms: _226  and  _227
REMARK   87  A    between atoms: _226  and  _229
REMARK   88  A    between atoms: _229  and  _230
REMARK   89  A    between atoms: _233  and  _235
REMARK   90  A    between atoms: _235  and  _236
REMARK   91  A    between atoms: _235  and  _238
REMARK   92  A    between atoms: _238  and  _239
REMARK   93  A    between atoms: _244  and  _246
REMARK   94  A    between atoms: _246  and  _247
REMARK   95  A    between atoms: _246  and  _249
REMARK   96  A    between atoms: _249  and  _250
REMARK   97  A    between atoms: _253  and  _255
REMARK   98  A    between atoms: _255  and  _256
REMARK   99  A    between atoms: _255  and  _258
REMARK  100  A    between atoms: _258  and  _259
REMARK  101  A    between atoms: _259  and  _260
REMARK  102  A    between atoms: _263  and  _265
REMARK  103  A    between atoms: _265  and  _266
REMARK  104  A    between atoms: _265  and  _268
REMARK  105  A    between atoms: _271  and  _273
REMARK  106  A    between atoms: _273  and  _274
REMARK  107  A    between atoms: _273  and  _276
REMARK  108  A    between atoms: _276  and  _277
REMARK  109  A    between atoms: _282  and  _284
REMARK  110  A    between atoms: _284  and  _285
REMARK  111  A    between atoms: _284  and  _287
REMARK  112  A    between atoms: _287  and  _288
REMARK  113  A    between atoms: _291  and  _293
REMARK  114  A    between atoms: _293  and  _294
REMARK  115  A    between atoms: _293  and  _296
REMARK  116  A    between atoms: _296  and  _297
REMARK  117  A    between atoms: _299  and  _301
REMARK  118  A    between atoms: _301  and  _302
REMARK  119  A    between atoms: _301  and  _304
REMARK  120  A    between atoms: _304  and  _305
REMARK  121  A    between atoms: _310  and  _312
REMARK  122  A    between atoms: _312  and  _313
REMARK  123  A    between atoms: _312  and  _315
REMARK  124  A    between atoms: _318  and  _320
REMARK  125  A    between atoms: _320  and  _321
REMARK  126  A    between atoms: _320  and  _323
REMARK  127  A    between atoms: _323  and  _324
REMARK  128  A    between atoms: _329  and  _331
REMARK  129  A    between atoms: _331  and  _332
REMARK  130  A    between atoms: _331  and  _334
REMARK  131  A    between atoms: _334  and  _335
REMARK  132  A    between atoms: _335  and  _336
REMARK  133  A    between atoms: _336  and  _337
REMARK  134  A    between atoms: _346  and  _348
REMARK  135  A    between atoms: _348  and  _349
REMARK  136  A    between atoms: _348  and  _351
REMARK  137  A    between atoms: _351  and  _352
REMARK  138  A    between atoms: _352  and  _353
REMARK  139  A    between atoms: _356  and  _358
REMARK  140  A    between atoms: _358  and  _359
REMARK  141  A    between atoms: _358  and  _361
REMARK  142  A    between atoms: _361  and  _362
REMARK  143  A    between atoms: _368  and  _370
REMARK  144  A    between atoms: _370  and  _371
REMARK  145  A    between atoms: _370  and  _373
REMARK  146  A    between atoms: _373  and  _374
REMARK  147  A    between atoms: _374  and  _375
REMARK  148  A    between atoms: _375  and  _376
REMARK  149  A    between atoms: _385  and  _387
REMARK  150  A    between atoms: _387  and  _388
REMARK  151  A    between atoms: _387  and  _390
REMARK  152  A    between atoms: _390  and  _391
REMARK  153  A    between atoms: _391  and  _392
REMARK  154  A    between atoms: _392  and  _393
REMARK  155  A    between atoms: _402  and  _404
REMARK  156  A    between atoms: _404  and  _405
REMARK  157  A    between atoms: _404  and  _407
REMARK  158  A    between atoms: _407  and  _408
REMARK  159  A    between atoms: _413  and  _415
REMARK  160  A    between atoms: _415  and  _416
REMARK  161  A    between atoms: _415  and  _418
REMARK  162  A    between atoms: _418  and  _419
REMARK  163  A    between atoms: _421  and  _423
REMARK  164  A    between atoms: _423  and  _424
REMARK  165  A    between atoms: _423  and  _426
REMARK  166  A    between atoms: _426  and  _427
REMARK  167  A    between atoms: _430  and  _432
REMARK  168  A    between atoms: _432  and  _433
REMARK  169  A    between atoms: _432  and  _435
REMARK  170  A    between atoms: _435  and  _436
REMARK  171  A    between atoms: _439  and  _441
REMARK  172  A    between atoms: _441  and  _442
REMARK  173  A    between atoms: _441  and  _444
REMARK  174  A    between atoms: _447  and  _449
REMARK  175  A    between atoms: _449  and  _450
REMARK  176  A    between atoms: _452  and  _454
REMARK  177  A    between atoms: _454  and  _455
REMARK  178  A    between atoms: _454  and  _457
REMARK  179  A    between atoms: _457  and  _458
REMARK  180  A    between atoms: _461  and  _463
REMARK  181  A    between atoms: _463  and  _464
REMARK  182  A    between atoms: _466  and  _468
REMARK  183  A    between atoms: _468  and  _469
REMARK  184  A    between atoms: _468  and  _471
REMARK  185  A    between atoms: _471  and  _472
REMARK  186  A    between atoms: _475  and  _477
REMARK  187  A    between atoms: _477  and  _478
REMARK  188  A    between atoms: _477  and  _480
REMARK  189  A    between atoms: _480  and  _481
REMARK  190  A    between atoms: _486  and  _487
REMARK  191  A    between atoms: _489  and  _491
REMARK  192  A    between atoms: _491  and  _492
REMARK  193  A    between atoms: _491  and  _494
REMARK  194  A    between atoms: _494  and  _495
REMARK  195  A    between atoms: _498  and  _500
REMARK  196  A    between atoms: _500  and  _501
REMARK  197  A    between atoms: _500  and  _503
REMARK  198  A    between atoms: _503  and  _504
REMARK  199  A    between atoms: _507  and  _509
REMARK  200  A    between atoms: _509  and  _510
REMARK  201  A    between atoms: _509  and  _512
REMARK  202  A    between atoms: _512  and  _513
REMARK  203  A    between atoms: _518  and  _520
REMARK  204  A    between atoms: _520  and  _521
REMARK  205  A    between atoms: _524  and  _526
REMARK  206  A    between atoms: _526  and  _527
REMARK  207  A    between atoms: _526  and  _529
REMARK  208  A    between atoms: _532  and  _534
REMARK  209  A    between atoms: _534  and  _535
REMARK  210  A    between atoms: _538  and  _540
REMARK  211  A    between atoms: _540  and  _541
REMARK  212  A    between atoms: _540  and  _543
REMARK  213  A    between atoms: _543  and  _544
REMARK  214  A    between atoms: _547  and  _549
REMARK  215  A    between atoms: _549  and  _550
REMARK  216  A    between atoms: _549  and  _552
REMARK  217  A    between atoms: _552  and  _553
REMARK  218  A    between atoms: _553  and  _554
REMARK  219  A    between atoms: _554  and  _555
REMARK  220  A    between atoms: _564  and  _566
REMARK  221  A    between atoms: _566  and  _567
REMARK  222  A    between atoms: _566  and  _569
REMARK  223  A    between atoms: _569  and  _570
REMARK  224  A    between atoms: _573  and  _575
REMARK  225  A    between atoms: _575  and  _576
REMARK  226  A    between atoms: _579  and  _581
REMARK  227  A    between atoms: _581  and  _582
REMARK  228  A    between atoms: _581  and  _584
REMARK  229  A    between atoms: _586  and  _588
REMARK  230  A    between atoms: _588  and  _589
REMARK  231  A    between atoms: _592  and  _594
REMARK  232  A    between atoms: _594  and  _595
REMARK  233  A    between atoms: _594  and  _597
REMARK  234  A    between atoms: _597  and  _598
REMARK  235  A    between atoms: _598  and  _599
REMARK  236  A    between atoms: _602  and  _604
REMARK  237  A    between atoms: _604  and  _605
REMARK  238  A    between atoms: _604  and  _607
REMARK  239  A    between atoms: _607  and  _608
REMARK                            x       y       z     vdW  Elec       q    Type
REMARK                         _______ _______ _______ _____ _____    ______ ____
ROOT
ATOM      1  C   ILE A   1      25.453  32.535 -12.750  0.00  0.00    +0.238 C 
ATOM      2  N   HIS A   2      26.711  32.698 -12.327  0.00  0.00    -0.298 N 
ATOM      3  H   HIS A   2      27.431  32.023 -12.656  0.00  0.00    +0.150 HD
ATOM      4  O   ILE A   1      24.498  33.266 -12.363  0.00  0.00    -0.274 OA
ENDROOT
BRANCH   1   5
ATOM      5  CA  ILE A   1      25.181  31.368 -13.744  0.00  0.00    +0.145 C 
BRANCH   5   6
ATOM      6  N   ILE A   1      26.169  31.298 -14.846  0.00  0.00    -0.238 NA
ATOM      7  H   ILE A   1      26.769  30.457 -14.965  0.00  0.00    +0.142 HD
ENDBRANCH   5   6
BRANCH   5   8
ATOM      8  CB  ILE A   1      25.055  29.990 -12.979  0.00  0.00    +0.025 C 
ATOM      9  CG2 ILE A   1      24.097  30.111 -11.794  0.00  0.00    +0.002 C 
BRANCH   8  10
ATOM     10  CG1 ILE A   1      24.604  28.906 -13.944  0.00  0.00    +0.002 C 
ATOM     11  CD1 ILE A   1      23.246  29.086 -14.576  0.00  0.00    +0.000 C 
ENDBRANCH   8  10
ENDBRANCH   5   8
ENDBRANCH   1   5
BRANCH   2  12
ATOM     12  CA  HIS A   2      27.139  33.790 -11.413  0.00  0.00    +0.143 C 
BRANCH  12  13
ATOM     13  C   HIS A   2      26.776  35.145 -12.026  0.00  0.00    +0.227 C 
ATOM     14  O   HIS A   2      26.296  36.008 -11.343  0.00  0.00    -0.286 OA
ENDBRANCH  12  13
BRANCH  12  15
ATOM     15  CB  HIS A   2      28.659  33.785 -11.226  0.00  0.00    +0.075 C 
BRANCH  15  16
ATOM     16  CG  HIS A   2      29.175  32.536 -10.586  0.00  0.00    +0.082 A 
ATOM     17  CD2 HIS A   2      28.546  31.606  -9.836  0.00  0.00    +0.115 A 
ATOM     18  NE2 HIS A   2      29.476  30.663  -9.487  0.00  0.00    -0.221 NA
ATOM     19  CE1 HIS A   2      30.645  30.989 -10.019  0.00  0.00    +0.199 A 
ATOM     20  ND1 HIS A   2      30.483  32.108 -10.710  0.00  0.00    -0.227 NA
ENDBRANCH  15  16
ENDBRANCH  12  15
ENDBRANCH   2  12
TORSDOF 8
REMARK  Name = ../refined-set-2016/3n86/3n86_pocket.pdb
REMARK  239 active torsions:
REMARK  status: ('A' for Active; 'I' for Inactive)
REMARK    1  A    between atoms: _1  and  _3
REMARK    2  A    between atoms: _3  and  _4
REMARK    3  A    between atoms: _3  and  _6
REMARK    4  A    between atoms: _6  and  _7
REMARK    5  A    between atoms: _12  and  _14
REMARK    6  A    between atoms: _14  and  _15
REMARK    7  A    between atoms: _18  and  _19
REMARK    8  A    between atoms: _24  and  _26
REMARK    9  A    between atoms: _26  and  _27
REMARK   10  A    between atoms: _26  and  _29
REMARK   11  A    between atoms: _29  and  _30
REMARK   12  A    between atoms: _35  and  _37
REMARK   13  A    between atoms: _37  and  _38
REMARK   14  A    between atoms: _37  and  _40
REMARK   15  A    between atoms: _40  and  _41
REMARK   16  A    between atoms: _44  and  _46
REMARK   17  A    between atoms: _46  and  _47
REMARK   18  A    between atoms: _49  and  _51
REMARK   19  A    between atoms: _51  and  _52
REMARK   20  A    between atoms: _51  and  _54
REMARK   21  A    between atoms: _54  and  _55
REMARK   22  A    between atoms: _55  and  _56
REMARK   23  A    between atoms: _56  and  _57
REMARK   24  A    between atoms: _66  and  _68
REMARK   25  A    between atoms: _68  and  _69
REMARK   26  A    between atoms: _68  and  _71
REMARK   27  A    between atoms: _71  and  _72
REMARK   28  A    between atoms: _75  and  _77
REMARK   29  A    between atoms: _77  and  _78
REMARK   30  A    between atoms: _80  and  _82
REMARK   31  A    between atoms: _82  and  _83
REMARK   32  A    between atoms: _82  and  _85
REMARK   33  A    between atoms: _85  and  _86
REMARK   34  A    between atoms: _86  and  _87
REMARK   35  A    between atoms: _87  and  _88
REMARK   36  A    between atoms: _97  and  _99
REMARK   37  A    between atoms: _99  and  _100
REMARK   38  A    between atoms: _99  and  _102
REMARK   39  A    between atoms: _102  and  _103
REMARK   40  A    between atoms: _103  and  _104
REMARK   41  A    between atoms: _104  and  _105
REMARK   42  A    between atoms: _114  and  _116
REMARK   43  A    between atoms: _116  and  _117
REMARK   44  A    between atoms: _116  and  _119
REMARK   45  A    between atoms: _119  and  _120
REMARK   46  A    between atoms: _120  and  _121
REMARK   47  A    between atoms: _125  and  _126
REMARK   48  A    between atoms: _131  and  _133
REMARK   49  A    between atoms: _133  and  _134
REMARK   50  A    between atoms: _133  and  _136
REMARK   51  A    between atoms: _139  and  _141
REMARK   52  A    between atoms: _141  and  _142
REMARK   53  A    between atoms: _141  and  _144
REMARK   54  A    between atoms: _144  and  _145
REMARK   55  A    between atoms: _150  and  _151
REMARK   56  A    between atoms: _153  and  _155
REMARK   57  A    between atoms: _155  and  _156
REMARK   58  A    between atoms: _158  and  _160
REMARK   59  A    between atoms: _160  and  _161
REMARK   60  A    between atoms: _160  and  _163
REMARK   61  A    between atoms: _163  and  _164
REMARK   62  A    between atoms: _164  and  _165
REMARK   63  A    between atoms: _170  and  _172
REMARK   64  A    between atoms: _172  and  _173
REMARK   65  A    between atoms: _172  and  _175
REMARK   66  A    between atoms: _175  and  _176
REMARK   67  A    between atoms: _179  and  _181
REMARK   68  A    between atoms: _181  and  _182
REMARK   69  A    between atoms: _181  and  _184
REMARK   70  A    between atoms: _184  and  _185
REMARK   71  A    between atoms: _188  and  _190
REMARK   72  A    between atoms: _190  and  _191
REMARK   73  A    between atoms: _190  and  _193
REMARK   74  A    between atoms: _193  and  _194
REMARK   75  A    between atoms: _199  and  _201
REMARK   76  A    between atoms: _201  and  _202
REMARK   77  A    between atoms: _205  and  _207
REMARK   78  A    between atoms: _207  and  _208
REMARK   79  A    between atoms: _210  and  _212
REMARK   80  A    between atoms: _212  and  _213
REMARK   81  A    between atoms: _215  and  _217
REMARK   82  A    between atoms: _217  and  _218
REMARK   83  A    between atoms: _217  and  _220
REMARK   84  A    between atoms: _220  and  _221
REMARK   85  A    between atoms: _224  and  _226
REMARK   86  A    between atoms: _226  and  _227
REMARK   87  A    between atoms: _226  and  _229
REMARK   88  A    between atoms: _229  and  _230
REMARK   89  A    between atoms: _233  and  _235
REMARK   90  A    between atoms: _235  and  _236
REMARK   91  A    between atoms: _235  and  _238
REMARK   92  A    between atoms: _238  and  _239
REMARK   93  A    between atoms: _244  and  _246
REMARK   94  A    between atoms: _246  and  _247
REMARK   95  A    between atoms: _246  and  _249
REMARK   96  A    between atoms: _249  and  _250
REMARK   97  A    between atoms: _253  and  _255
REMARK   98  A    between atoms: _255  and  _256
REMARK   99  A    between atoms: _255  and  _258
REMARK  100  A    between atoms: _258  and  _259
REMARK  101  A    between atoms: _259  and  _260
REMARK  102  A    between atoms: _263  and  _265
REMARK  103  A    between atoms: _265  and  _266
REMARK  104  A    between atoms: _265  and  _268
REMARK  105  A    between atoms: _271  and  _273
REMARK  106  A    between atoms: _273  and  _274
REMARK  107  A    between atoms: _273  and  _276
REMARK  108  A    between atoms: _276  and  _277
REMARK  109  A    between atoms: _282  and  _284
REMARK  110  A    between atoms: _284  and  _285
REMARK  111  A    between atoms: _284  and  _287
REMARK  112  A    between atoms: _287  and  _288
REMARK  113  A    between atoms: _291  and  _293
REMARK  114  A    between atoms: _293  and  _294
REMARK  115  A    between atoms: _293  and  _296
REMARK  116  A    between atoms: _296  and  _297
REMARK  117  A    between atoms: _299  and  _301
REMARK  118  A    between atoms: _301  and  _302
REMARK  119  A    between atoms: _301  and  _304
REMARK  120  A    between atoms: _304  and  _305
REMARK  121  A    between atoms: _310  and  _312
REMARK  122  A    between atoms: _312  and  _313
REMARK  123  A    between atoms: _312  and  _315
REMARK  124  A    between atoms: _318  and  _320
REMARK  125  A    between atoms: _320  and  _321
REMARK  126  A    between atoms: _320  and  _323
REMARK  127  A    between atoms: _323  and  _324
REMARK  128  A    between atoms: _329  and  _331
REMARK  129  A    between atoms: _331  and  _332
REMARK  130  A    between atoms: _331  and  _334
REMARK  131  A    between atoms: _334  and  _335
REMARK  132  A    between atoms: _335  and  _336
REMARK  133  A    between atoms: _336  and  _337
REMARK  134  A    between atoms: _346  and  _348
REMARK  135  A    between atoms: _348  and  _349
REMARK  136  A    between atoms: _348  and  _351
REMARK  137  A    between atoms: _351  and  _352
REMARK  138  A    between atoms: _352  and  _353
REMARK  139  A    between atoms: _356  and  _358
REMARK  140  A    between atoms: _358  and  _359
REMARK  141  A    between atoms: _358  and  _361
REMARK  142  A    between atoms: _361  and  _362
REMARK  143  A    between atoms: _368  and  _370
REMARK  144  A    between atoms: _370  and  _371
REMARK  145  A    between atoms: _370  and  _373
REMARK  146  A    between atoms: _373  and  _374
REMARK  147  A    between atoms: _374  and  _375
REMARK  148  A    between atoms: _375  and  _376
REMARK  149  A    between atoms: _385  and  _387
REMARK  150  A    between atoms: _387  and  _388
REMARK  151  A    between atoms: _387  and  _390
REMARK  152  A    between atoms: _390  and  _391
REMARK  153  A    between atoms: _391  and  _392
REMARK  154  A    between atoms: _392  and  _393
REMARK  155  A    between atoms: _402  and  _404
REMARK  156  A    between atoms: _404  and  _405
REMARK  157  A    between atoms: _404  and  _407
REMARK  158  A    between atoms: _407  and  _408
REMARK  159  A    between atoms: _413  and  _415
REMARK  160  A    between atoms: _415  and  _416
REMARK  161  A    between atoms: _415  and  _418
REMARK  162  A    between atoms: _418  and  _419
REMARK  163  A    between atoms: _421  and  _423
REMARK  164  A    between atoms: _423  and  _424
REMARK  165  A    between atoms: _423  and  _426
REMARK  166  A    between atoms: _426  and  _427
REMARK  167  A    between atoms: _430  and  _432
REMARK  168  A    between atoms: _432  and  _433
REMARK  169  A    between atoms: _432  and  _435
REMARK  170  A    between atoms: _435  and  _436
REMARK  171  A    between atoms: _439  and  _441
REMARK  172  A    between atoms: _441  and  _442
REMARK  173  A    between atoms: _441  and  _444
REMARK  174  A    between atoms: _447  and  _449
REMARK  175  A    between atoms: _449  and  _450
REMARK  176  A    between atoms: _452  and  _454
REMARK  177  A    between atoms: _454  and  _455
REMARK  178  A    between atoms: _454  and  _457
REMARK  179  A    between atoms: _457  and  _458
REMARK  180  A    between atoms: _461  and  _463
REMARK  181  A    between atoms: _463  and  _464
REMARK  182  A    between atoms: _466  and  _468
REMARK  183  A    between atoms: _468  and  _469
REMARK  184  A    between atoms: _468  and  _471
REMARK  185  A    between atoms: _471  and  _472
REMARK  186  A    between atoms: _475  and  _477
REMARK  187  A    between atoms: _477  and  _478
REMARK  188  A    between atoms: _477  and  _480
REMARK  189  A    between atoms: _480  and  _481
REMARK  190  A    between atoms: _486  and  _487
REMARK  191  A    between atoms: _489  and  _491
REMARK  192  A    between atoms: _491  and  _492
REMARK  193  A    between atoms: _491  and  _494
REMARK  194  A    between atoms: _494  and  _495
REMARK  195  A    between atoms: _498  and  _500
REMARK  196  A    between atoms: _500  and  _501
REMARK  197  A    between atoms: _500  and  _503
REMARK  198  A    between atoms: _503  and  _504
REMARK  199  A    between atoms: _507  and  _509
REMARK  200  A    between atoms: _509  and  _510
REMARK  201  A    between atoms: _509  and  _512
REMARK  202  A    between atoms: _512  and  _513
REMARK  203  A    between atoms: _518  and  _520
REMARK  204  A    between atoms: _520  and  _521
REMARK  205  A    between atoms: _524  and  _526
REMARK  206  A    between atoms: _526  and  _527
REMARK  207  A    between atoms: _526  and  _529
REMARK  208  A    between atoms: _532  and  _534
REMARK  209  A    between atoms: _534  and  _535
REMARK  210  A    between atoms: _538  and  _540
REMARK  211  A    between atoms: _540  and  _541
REMARK  212  A    between atoms: _540  and  _543
REMARK  213  A    between atoms: _543  and  _544
REMARK  214  A    between atoms: _547  and  _549
REMARK  215  A    between atoms: _549  and  _550
REMARK  216  A    between atoms: _549  and  _552
REMARK  217  A    between atoms: _552  and  _553
REMARK  218  A    between atoms: _553  and  _554
REMARK  219  A    between atoms: _554  and  _555
REMARK  220  A    between atoms: _564  and  _566
REMARK  221  A    between atoms: _566  and  _567
REMARK  222  A    between atoms: _566  and  _569
REMARK  223  A    between atoms: _569  and  _570
REMARK  224  A    between atoms: _573  and  _575
REMARK  225  A    between atoms: _575  and  _576
REMARK  226  A    between atoms: _579  and  _581
REMARK  227  A    between atoms: _581  and  _582
REMARK  228  A    between atoms: _581  and  _584
REMARK  229  A    between atoms: _586  and  _588
REMARK  230  A    between atoms: _588  and  _589
REMARK  231  A    between atoms: _592  and  _594
REMARK  232  A    between atoms: _594  and  _595
REMARK  233  A    between atoms: _594  and  _597
REMARK  234  A    between atoms: _597  and  _598
REMARK  235  A    between atoms: _598  and  _599
REMARK  236  A    between atoms: _602  and  _604
REMARK  237  A    between atoms: _604  and  _605
REMARK  238  A    between atoms: _604  and  _607
REMARK  239  A    between atoms: _607  and  _608
REMARK                            x       y       z     vdW  Elec       q    Type
REMARK                         _______ _______ _______ _____ _____    ______ ____
ROOT
ATOM      1  CA  ALA A   1      22.801  35.903 -10.356  0.00  0.00    +0.133 C 
ATOM      2  CB  ALA A   1      23.592  34.910  -9.402  0.00  0.00    +0.027 C 
ENDROOT
BRANCH   1   3
ATOM      3  N   ALA A   1      23.061  35.615 -11.760  0.00  0.00    -0.239 NA
ATOM      4  H   ALA A   1      23.793  34.919 -12.007  0.00  0.00    +0.142 HD
ENDBRANCH   1   3
BRANCH   1   5
ATOM      5  C   ALA A   1      23.133  37.380  -9.996  0.00  0.00    +0.224 C 
ATOM      6  O   ALA A   1      22.360  38.014  -9.319  0.00  0.00    -0.287 OA
ENDBRANCH   1   5
TORSDOF 2
REMARK  Name = ../refined-set-2016/3n86/3n86_pocket.pdb
REMARK  239 active torsions:
REMARK  status: ('A' for Active; 'I' for Inactive)
REMARK    1  A    between atoms: _1  and  _3
REMARK    2  A    between atoms: _3  and  _4
REMARK    3  A    between atoms: _3  and  _6
REMARK    4  A    between atoms: _6  and  _7
REMARK    5  A    between atoms: _12  and  _14
REMARK    6  A    between atoms: _14  and  _15
REMARK    7  A    between atoms: _18  and  _19
REMARK    8  A    between atoms: _24  and  _26
REMARK    9  A    between atoms: _26  and  _27
REMARK   10  A    between atoms: _26  and  _29
REMARK   11  A    between atoms: _29  and  _30
REMARK   12  A    between atoms: _35  and  _37
REMARK   13  A    between atoms: _37  and  _38
REMARK   14  A    between atoms: _37  and  _40
REMARK   15  A    between atoms: _40  and  _41
REMARK   16  A    between atoms: _44  and  _46
REMARK   17  A    between atoms: _46  and  _47
REMARK   18  A    between atoms: _49  and  _51
REMARK   19  A    between atoms: _51  and  _52
REMARK   20  A    between atoms: _51  and  _54
REMARK   21  A    between atoms: _54  and  _55
REMARK   22  A    between atoms: _55  and  _56
REMARK   23  A    between atoms: _56  and  _57
REMARK   24  A    between atoms: _66  and  _68
REMARK   25  A    between atoms: _68  and  _69
REMARK   26  A    between atoms: _68  and  _71
REMARK   27  A    between atoms: _71  and  _72
REMARK   28  A    between atoms: _75  and  _77
REMARK   29  A    between atoms: _77  and  _78
REMARK   30  A    between atoms: _80  and  _82
REMARK   31  A    between atoms: _82  and  _83
REMARK   32  A    between atoms: _82  and  _85
REMARK   33  A    between atoms: _85  and  _86
REMARK   34  A    between atoms: _86  and  _87
REMARK   35  A    between atoms: _87  and  _88
REMARK   36  A    between atoms: _97  and  _99
REMARK   37  A    between atoms: _99  and  _100
REMARK   38  A    between atoms: _99  and  _102
REMARK   39  A    between atoms: _102  and  _103
REMARK   40  A    between atoms: _103  and  _104
REMARK   41  A    between atoms: _104  and  _105
REMARK   42  A    between atoms: _114  and  _116
REMARK   43  A    between atoms: _116  and  _117
REMARK   44  A    between atoms: _116  and  _119
REMARK   45  A    between atoms: _119  and  _120
REMARK   46  A    between atoms: _120  and  _121
REMARK   47  A    between atoms: _125  and  _126
REMARK   48  A    between atoms: _131  and  _133
REMARK   49  A    between atoms: _133  and  _134
REMARK   50  A    between atoms: _133  and  _136
REMARK   51  A    between atoms: _139  and  _141
REMARK   52  A    between atoms: _141  and  _142
REMARK   53  A    between atoms: _141  and  _144
REMARK   54  A    between atoms: _144  and  _145
REMARK   55  A    between atoms: _150  and  _151
REMARK   56  A    between atoms: _153  and  _155
REMARK   57  A    between atoms: _155  and  _156
REMARK   58  A    between atoms: _158  and  _160
REMARK   59  A    between atoms: _160  and  _161
REMARK   60  A    between atoms: _160  and  _163
REMARK   61  A    between atoms: _163  and  _164
REMARK   62  A    between atoms: _164  and  _165
REMARK   63  A    between atoms: _170  and  _172
REMARK   64  A    between atoms: _172  and  _173
REMARK   65  A    between atoms: _172  and  _175
REMARK   66  A    between atoms: _175  and  _176
REMARK   67  A    between atoms: _179  and  _181
REMARK   68  A    between atoms: _181  and  _182
REMARK   69  A    between atoms: _181  and  _184
REMARK   70  A    between atoms: _184  and  _185
REMARK   71  A    between atoms: _188  and  _190
REMARK   72  A    between atoms: _190  and  _191
REMARK   73  A    between atoms: _190  and  _193
REMARK   74  A    between atoms: _193  and  _194
REMARK   75  A    between atoms: _199  and  _201
REMARK   76  A    between atoms: _201  and  _202
REMARK   77  A    between atoms: _205  and  _207
REMARK   78  A    between atoms: _207  and  _208
REMARK   79  A    between atoms: _210  and  _212
REMARK   80  A    between atoms: _212  and  _213
REMARK   81  A    between atoms: _215  and  _217
REMARK   82  A    between atoms: _217  and  _218
REMARK   83  A    between atoms: _217  and  _220
REMARK   84  A    between atoms: _220  and  _221
REMARK   85  A    between atoms: _224  and  _226
REMARK   86  A    between atoms: _226  and  _227
REMARK   87  A    between atoms: _226  and  _229
REMARK   88  A    between atoms: _229  and  _230
REMARK   89  A    between atoms: _233  and  _235
REMARK   90  A    between atoms: _235  and  _236
REMARK   91  A    between atoms: _235  and  _238
REMARK   92  A    between atoms: _238  and  _239
REMARK   93  A    between atoms: _244  and  _246
REMARK   94  A    between atoms: _246  and  _247
REMARK   95  A    between atoms: _246  and  _249
REMARK   96  A    between atoms: _249  and  _250
REMARK   97  A    between atoms: _253  and  _255
REMARK   98  A    between atoms: _255  and  _256
REMARK   99  A    between atoms: _255  and  _258
REMARK  100  A    between atoms: _258  and  _259
REMARK  101  A    between atoms: _259  and  _260
REMARK  102  A    between atoms: _263  and  _265
REMARK  103  A    between atoms: _265  and  _266
REMARK  104  A    between atoms: _265  and  _268
REMARK  105  A    between atoms: _271  and  _273
REMARK  106  A    between atoms: _273  and  _274
REMARK  107  A    between atoms: _273  and  _276
REMARK  108  A    between atoms: _276  and  _277
REMARK  109  A    between atoms: _282  and  _284
REMARK  110  A    between atoms: _284  and  _285
REMARK  111  A    between atoms: _284  and  _287
REMARK  112  A    between atoms: _287  and  _288
REMARK  113  A    between atoms: _291  and  _293
REMARK  114  A    between atoms: _293  and  _294
REMARK  115  A    between atoms: _293  and  _296
REMARK  116  A    between atoms: _296  and  _297
REMARK  117  A    between atoms: _299  and  _301
REMARK  118  A    between atoms: _301  and  _302
REMARK  119  A    between atoms: _301  and  _304
REMARK  120  A    between atoms: _304  and  _305
REMARK  121  A    between atoms: _310  and  _312
REMARK  122  A    between atoms: _312  and  _313
REMARK  123  A    between atoms: _312  and  _315
REMARK  124  A    between atoms: _318  and  _320
REMARK  125  A    between atoms: _320  and  _321
REMARK  126  A    between atoms: _320  and  _323
REMARK  127  A    between atoms: _323  and  _324
REMARK  128  A    between atoms: _329  and  _331
REMARK  129  A    between atoms: _331  and  _332
REMARK  130  A    between atoms: _331  and  _334
REMARK  131  A    between atoms: _334  and  _335
REMARK  132  A    between atoms: _335  and  _336
REMARK  133  A    between atoms: _336  and  _337
REMARK  134  A    between atoms: _346  and  _348
REMARK  135  A    between atoms: _348  and  _349
REMARK  136  A    between atoms: _348  and  _351
REMARK  137  A    between atoms: _351  and  _352
REMARK  138  A    between atoms: _352  and  _353
REMARK  139  A    between atoms: _356  and  _358
REMARK  140  A    between atoms: _358  and  _359
REMARK  141  A    between atoms: _358  and  _361
REMARK  142  A    between atoms: _361  and  _362
REMARK  143  A    between atoms: _368  and  _370
REMARK  144  A    between atoms: _370  and  _371
REMARK  145  A    between atoms: _370  and  _373
REMARK  146  A    between atoms: _373  and  _374
REMARK  147  A    between atoms: _374  and  _375
REMARK  148  A    between atoms: _375  and  _376
REMARK  149  A    between atoms: _385  and  _387
REMARK  150  A    between atoms: _387  and  _388
REMARK  151  A    between atoms: _387  and  _390
REMARK  152  A    between atoms: _390  and  _391
REMARK  153  A    between atoms: _391  and  _392
REMARK  154  A    between atoms: _392  and  _393
REMARK  155  A    between atoms: _402  and  _404
REMARK  156  A    between atoms: _404  and  _405
REMARK  157  A    between atoms: _404  and  _407
REMARK  158  A    between atoms: _407  and  _408
REMARK  159  A    between atoms: _413  and  _415
REMARK  160  A    between atoms: _415  and  _416
REMARK  161  A    between atoms: _415  and  _418
REMARK  162  A    between atoms: _418  and  _419
REMARK  163  A    between atoms: _421  and  _423
REMARK  164  A    between atoms: _423  and  _424
REMARK  165  A    between atoms: _423  and  _426
REMARK  166  A    between atoms: _426  and  _427
REMARK  167  A    between atoms: _430  and  _432
REMARK  168  A    between atoms: _432  and  _433
REMARK  169  A    between atoms: _432  and  _435
REMARK  170  A    between atoms: _435  and  _436
REMARK  171  A    between atoms: _439  and  _441
REMARK  172  A    between atoms: _441  and  _442
REMARK  173  A    between atoms: _441  and  _444
REMARK  174  A    between atoms: _447  and  _449
REMARK  175  A    between atoms: _449  and  _450
REMARK  176  A    between atoms: _452  and  _454
REMARK  177  A    between atoms: _454  and  _455
REMARK  178  A    between atoms: _454  and  _457
REMARK  179  A    between atoms: _457  and  _458
REMARK  180  A    between atoms: _461  and  _463
REMARK  181  A    between atoms: _463  and  _464
REMARK  182  A    between atoms: _466  and  _468
REMARK  183  A    between atoms: _468  and  _469
REMARK  184  A    between atoms: _468  and  _471
REMARK  185  A    between atoms: _471  and  _472
REMARK  186  A    between atoms: _475  and  _477
REMARK  187  A    between atoms: _477  and  _478
REMARK  188  A    between atoms: _477  and  _480
REMARK  189  A    between atoms: _480  and  _481
REMARK  190  A    between atoms: _486  and  _487
REMARK  191  A    between atoms: _489  and  _491
REMARK  192  A    between atoms: _491  and  _492
REMARK  193  A    between atoms: _491  and  _494
REMARK  194  A    between atoms: _494  and  _495
REMARK  195  A    between atoms: _498  and  _500
REMARK  196  A    between atoms: _500  and  _501
REMARK  197  A    between atoms: _500  and  _503
REMARK  198  A    between atoms: _503  and  _504
REMARK  199  A    between atoms: _507  and  _509
REMARK  200  A    between atoms: _509  and  _510
REMARK  201  A    between atoms: _509  and  _512
REMARK  202  A    between atoms: _512  and  _513
REMARK  203  A    between atoms: _518  and  _520
REMARK  204  A    between atoms: _520  and  _521
REMARK  205  A    between atoms: _524  and  _526
REMARK  206  A    between atoms: _526  and  _527
REMARK  207  A    between atoms: _526  and  _529
REMARK  208  A    between atoms: _532  and  _534
REMARK  209  A    between atoms: _534  and  _535
REMARK  210  A    between atoms: _538  and  _540
REMARK  211  A    between atoms: _540  and  _541
REMARK  212  A    between atoms: _540  and  _543
REMARK  213  A    between atoms: _543  and  _544
REMARK  214  A    between atoms: _547  and  _549
REMARK  215  A    between atoms: _549  and  _550
REMARK  216  A    between atoms: _549  and  _552
REMARK  217  A    between atoms: _552  and  _553
REMARK  218  A    between atoms: _553  and  _554
REMARK  219  A    between atoms: _554  and  _555
REMARK  220  A    between atoms: _564  and  _566
REMARK  221  A    between atoms: _566  and  _567
REMARK  222  A    between atoms: _566  and  _569
REMARK  223  A    between atoms: _569  and  _570
REMARK  224  A    between atoms: _573  and  _575
REMARK  225  A    between atoms: _575  and  _576
REMARK  226  A    between atoms: _579  and  _581
REMARK  227  A    between atoms: _581  and  _582
REMARK  228  A    between atoms: _581  and  _584
REMARK  229  A    between atoms: _586  and  _588
REMARK  230  A    between atoms: _588  and  _589
REMARK  231  A    between atoms: _592  and  _594
REMARK  232  A    between atoms: _594  and  _595
REMARK  233  A    between atoms: _594  and  _597
REMARK  234  A    between atoms: _597  and  _598
REMARK  235  A    between atoms: _598  and  _599
REMARK  236  A    between atoms: _602  and  _604
REMARK  237  A    between atoms: _604  and  _605
REMARK  238  A    between atoms: _604  and  _607
REMARK  239  A    between atoms: _607  and  _608
REMARK                            x       y       z     vdW  Elec       q    Type
REMARK                         _______ _______ _______ _____ _____    ______ ____
ROOT
ATOM      1  CA  ASP A   5      24.562  25.489  -5.472  0.00  0.00    +0.160 C 
ENDROOT
BRANCH   1   3
ATOM      2  C   ARG A   4      23.137  24.384  -7.112  0.00  0.00    +0.241 C 
ATOM      3  N   ASP A   5      24.272  24.385  -6.410  0.00  0.00    -0.297 N 
ATOM      4  H   ASP A   5      24.953  23.608  -6.523  0.00  0.00    +0.150 HD
ATOM      5  O   ARG A   4      22.260  25.234  -6.979  0.00  0.00    -0.273 OA
BRANCH   2   6
ATOM      6  CA  ARG A   4      22.930  23.201  -8.056  0.00  0.00    +0.149 C 
BRANCH   6   8
ATOM      7  C   LEU A   3      24.578  23.872  -9.663  0.00  0.00    +0.241 C 
ATOM      8  N   ARG A   4      24.091  22.921  -8.873  0.00  0.00    -0.297 N 
ATOM      9  H   ARG A   4      24.540  21.984  -8.842  0.00  0.00    +0.150 HD
ATOM     10  O   LEU A   3      23.984  25.006  -9.879  0.00  0.00    -0.273 OA
BRANCH   7  11
ATOM     11  CA  LEU A   3      25.896  23.553 -10.334  0.00  0.00    +0.149 C 
BRANCH  11  14
ATOM     12  C   ALA A   2      27.404  23.442  -8.382  0.00  0.00    +0.241 C 
ATOM     13  O   ALA A   2      27.182  24.637  -8.082  0.00  0.00    -0.273 OA
ATOM     14  N   LEU A   3      26.844  22.837  -9.445  0.00  0.00    -0.297 N 
ATOM     15  H   LEU A   3      27.081  21.845  -9.648  0.00  0.00    +0.150 HD
BRANCH  12  16
ATOM     16  CA  ALA A   2      28.300  22.602  -7.507  0.00  0.00    +0.149 C 
ATOM     17  CB  ALA A   2      29.699  22.489  -8.095  0.00  0.00    +0.031 C 
BRANCH  16  20
ATOM     18  C   VAL A   1      26.496  21.134  -6.767  0.00  0.00    +0.238 C 
ATOM     19  O   VAL A   1      25.833  22.102  -6.375  0.00  0.00    -0.274 OA
ATOM     20  N   ALA A   2      27.728  21.257  -7.269  0.00  0.00    -0.297 N 
ATOM     21  H   ALA A   2      28.285  20.408  -7.493  0.00  0.00    +0.150 HD
BRANCH  18  22
ATOM     22  CA  VAL A   1      25.957  19.694  -6.660  0.00  0.00    +0.145 C 
BRANCH  22  23
ATOM     23  CB  VAL A   1      26.439  19.090  -5.299  0.00  0.00    +0.025 C 
ATOM     24  CG2 VAL A   1      26.159  20.090  -4.059  0.00  0.00    +0.002 C 
ATOM     25  CG1 VAL A   1      25.733  17.672  -5.087  0.00  0.00    +0.002 C 
ENDBRANCH  22  23
BRANCH  22  26
ATOM     26  N   VAL A   1      26.504  18.910  -7.812  0.00  0.00    -0.238 NA
ATOM     27  H   VAL A   1      27.285  18.239  -7.666  0.00  0.00    +0.142 HD
ENDBRANCH  22  26
ENDBRANCH  18  22
ENDBRANCH  16  20
ENDBRANCH  12  16
ENDBRANCH  11  14
BRANCH  11  28
ATOM     28  CB  LEU A   3      25.611  22.821 -11.675  0.00  0.00    +0.029 C 
BRANCH  28  29
ATOM     29  CG  LEU A   3      24.653  23.466 -12.703  0.00  0.00    +0.002 C 
ATOM     30  CD2 LEU A   3      25.255  24.825 -13.182  0.00  0.00    +0.000 C 
ATOM     31  CD1 LEU A   3      24.386  22.559 -13.933  0.00  0.00    +0.000 C 
ENDBRANCH  28  29
ENDBRANCH  11  28
ENDBRANCH   7  11
ENDBRANCH   6   8
BRANCH   6  32
ATOM     32  CB  ARG A   4      22.622  21.982  -7.150  0.00  0.00    +0.033 C 
BRANCH  32  33
ATOM     33  CG  ARG A   4      21.336  22.194  -6.350  0.00  0.00    +0.045 C 
BRANCH  33  34
ATOM     34  CD  ARG A   4      21.267  21.101  -5.313  0.00  0.00    +0.174 C 
BRANCH  34  35
ATOM     35  NE  ARG A   4      20.352  21.218  -4.177  0.00  0.00    -0.265 N 
ATOM     36  HE  ARG A   4      20.564  21.928  -3.447  0.00  0.00    +0.259 HD
ATOM     37  CZ  ARG A   4      19.256  20.462  -4.025  0.00  0.00    +0.342 C 
ATOM     38  NH2 ARG A   4      18.589  20.539  -2.882  0.00  0.00    -0.292 N 
ATOM     39 HH21 ARG A   4      18.920  21.176  -2.129  0.00  0.00    +0.255 HD
ATOM     40 HH22 ARG A   4      17.735  19.963  -2.738  0.00  0.00    +0.255 HD
ATOM     41  NH1 ARG A   4      18.881  19.575  -4.970  0.00  0.00    -0.292 N 
ATOM     42 HH11 ARG A   4      18.027  18.998  -4.832  0.00  0.00    +0.255 HD
ATOM     43 HH12 ARG A   4      19.446  19.468  -5.836  0.00  0.00    +0.255 HD
ENDBRANCH  34  35
ENDBRANCH  33  34
ENDBRANCH  32  33
ENDBRANCH   6  32
ENDBRANCH   2   6
ENDBRANCH   1   3
BRANCH   1  44
ATOM     44  C   ASP A   5      24.665  26.848  -6.169  0.00  0.00    +0.241 C 
ATOM     45  O   ASP A   5      24.230  27.870  -5.612  0.00  0.00    -0.273 OA
ATOM     46  N   ALA A   6      25.216  26.867  -7.390  0.00  0.00    -0.297 N 
ATOM     47  H   ALA A   6      25.554  25.986  -7.827  0.00  0.00    +0.150 HD
BRANCH  46  48
ATOM     48  CA  ALA A   6      25.340  28.156  -8.113  0.00  0.00    +0.149 C 
ATOM     49  CB  ALA A   6      26.213  28.037  -9.319  0.00  0.00    +0.031 C 
BRANCH  48  50
ATOM     50  C   ALA A   6      23.949  28.600  -8.502  0.00  0.00    +0.241 C 
ATOM     51  O   ALA A   6      23.614  29.775  -8.362  0.00  0.00    -0.273 OA
ATOM     52  N   CYS A   7      23.117  27.662  -8.977  0.00  0.00    -0.296 N 
ATOM     53  H   CYS A   7      23.453  26.683  -9.081  0.00  0.00    +0.150 HD
BRANCH  52  54
ATOM     54  CA  CYS A   7      21.756  27.994  -9.348  0.00  0.00    +0.160 C 
BRANCH  54  55
ATOM     55  C   CYS A   7      20.874  28.462  -8.203  0.00  0.00    +0.242 C 
ATOM     56  N   ALA A   8      21.139  27.940  -7.020  0.00  0.00    -0.297 N 
ATOM     57  H   ALA A   8      21.985  27.346  -6.905  0.00  0.00    +0.150 HD
ATOM     58  O   CYS A   7      19.885  29.217  -8.409  0.00  0.00    -0.273 OA
BRANCH  56  59
ATOM     59  CA  ALA A   8      20.261  28.180  -5.855  0.00  0.00    +0.149 C 
ATOM     60  CB  ALA A   8      20.696  27.289  -4.615  0.00  0.00    +0.031 C 
BRANCH  59  61
ATOM     61  C   ALA A   8      20.366  29.654  -5.480  0.00  0.00    +0.241 C 
ATOM     62  O   ALA A   8      19.516  30.146  -4.824  0.00  0.00    -0.273 OA
ATOM     63  N   GLU A   9      21.432  30.324  -5.895  0.00  0.00    -0.297 N 
ATOM     64  H   GLU A   9      22.132  29.820  -6.477  0.00  0.00    +0.150 HD
BRANCH  63  65
ATOM     65  CA  GLU A   9      21.679  31.719  -5.585  0.00  0.00    +0.149 C 
BRANCH  65  66
ATOM     66  C   GLU A   9      20.840  32.598  -6.513  0.00  0.00    +0.241 C 
ATOM     67  O   GLU A   9      20.618  33.744  -6.204  0.00  0.00    -0.273 OA
ATOM     68  N   LEU A  10      20.332  32.073  -7.635  0.00  0.00    -0.298 N 
ATOM     69  H   LEU A  10      20.505  31.076  -7.876  0.00  0.00    +0.150 HD
BRANCH  68  70
ATOM     70  CA  LEU A  10      19.527  32.925  -8.521  0.00  0.00    +0.137 C 
BRANCH  70  71
ATOM     71  C   LEU A  10      18.258  33.476  -7.848  0.00  0.00    +0.227 C 
ATOM     72  O   LEU A  10      17.497  32.737  -7.235  0.00  0.00    -0.286 OA
ENDBRANCH  70  71
BRANCH  70  73
ATOM     73  CB  LEU A  10      19.134  32.166  -9.776  0.00  0.00    +0.028 C 
BRANCH  73  74
ATOM     74  CG  LEU A  10      20.207  31.679 -10.731  0.00  0.00    +0.002 C 
ATOM     75  CD2 LEU A  10      20.707  32.904 -11.560  0.00  0.00    +0.000 C 
ATOM     76  CD1 LEU A  10      19.624  30.607 -11.644  0.00  0.00    +0.000 C 
ENDBRANCH  73  74
ENDBRANCH  70  73
ENDBRANCH  68  70
ENDBRANCH  65  66
BRANCH  65  77
ATOM     77  CB  GLU A   9      23.178  32.023  -5.841  0.00  0.00    +0.041 C 
BRANCH  77  78
ATOM     78  CG  GLU A   9      23.636  33.360  -5.359  0.00  0.00    +0.116 C 
BRANCH  78  79
ATOM     79  CD  GLU A   9      24.920  33.818  -5.955  0.00  0.00    +0.365 C 
ATOM     80  OE2 GLU A   9      25.079  35.035  -5.935  0.00  0.00    -0.246 OA
ATOM     81  OE1 GLU A   9      25.771  33.035  -6.465  0.00  0.00    -0.246 OA
ENDBRANCH  78  79
ENDBRANCH  77  78
ENDBRANCH  65  77
ENDBRANCH  63  65
ENDBRANCH  59  61
ENDBRANCH  56  59
ENDBRANCH  54  55
BRANCH  54  82
ATOM     82  CB  CYS A   7      21.083  26.770 -10.048  0.00  0.00    +0.098 C 
ATOM     83  SG  CYS A   7      21.773  26.507 -11.753  0.00  0.00    -0.080 S 
ENDBRANCH  54  82
ENDBRANCH  52  54
ENDBRANCH  48  50
ENDBRANCH  46  48
ENDBRANCH   1  44
BRANCH   1  84
ATOM     84  CB  ASP A   5      25.760  25.114  -4.595  0.00  0.00    +0.143 C 
BRANCH  84  85
ATOM     85  CG  ASP A   5      25.348  24.029  -3.554  0.00  0.00    +0.367 C 
ATOM     86  OD2 ASP A   5      26.133  23.308  -2.979  0.00  0.00    -0.246 OA
ATOM     87  OD1 ASP A   5      24.132  23.937  -3.280  0.00  0.00    -0.246 OA
ENDBRANCH  84  85
ENDBRANCH   1  84
TORSDOF 35
REMARK  Name = ../refined-set-2016/3n86/3n86_pocket.pdb
REMARK  239 active torsions:
REMARK  status: ('A' for Active; 'I' for Inactive)
REMARK    1  A    between atoms: _1  and  _3
REMARK    2  A    between atoms: _3  and  _4
REMARK    3  A    between atoms: _3  and  _6
REMARK    4  A    between atoms: _6  and  _7
REMARK    5  A    between atoms: _12  and  _14
REMARK    6  A    between atoms: _14  and  _15
REMARK    7  A    between atoms: _18  and  _19
REMARK    8  A    between atoms: _24  and  _26
REMARK    9  A    between atoms: _26  and  _27
REMARK   10  A    between atoms: _26  and  _29
REMARK   11  A    between atoms: _29  and  _30
REMARK   12  A    between atoms: _35  and  _37
REMARK   13  A    between atoms: _37  and  _38
REMARK   14  A    between atoms: _37  and  _40
REMARK   15  A    between atoms: _40  and  _41
REMARK   16  A    between atoms: _44  and  _46
REMARK   17  A    between atoms: _46  and  _47
REMARK   18  A    between atoms: _49  and  _51
REMARK   19  A    between atoms: _51  and  _52
REMARK   20  A    between atoms: _51  and  _54
REMARK   21  A    between atoms: _54  and  _55
REMARK   22  A    between atoms: _55  and  _56
REMARK   23  A    between atoms: _56  and  _57
REMARK   24  A    between atoms: _66  and  _68
REMARK   25  A    between atoms: _68  and  _69
REMARK   26  A    between atoms: _68  and  _71
REMARK   27  A    between atoms: _71  and  _72
REMARK   28  A    between atoms: _75  and  _77
REMARK   29  A    between atoms: _77  and  _78
REMARK   30  A    between atoms: _80  and  _82
REMARK   31  A    between atoms: _82  and  _83
REMARK   32  A    between atoms: _82  and  _85
REMARK   33  A    between atoms: _85  and  _86
REMARK   34  A    between atoms: _86  and  _87
REMARK   35  A    between atoms: _87  and  _88
REMARK   36  A    between atoms: _97  and  _99
REMARK   37  A    between atoms: _99  and  _100
REMARK   38  A    between atoms: _99  and  _102
REMARK   39  A    between atoms: _102  and  _103
REMARK   40  A    between atoms: _103  and  _104
REMARK   41  A    between atoms: _104  and  _105
REMARK   42  A    between atoms: _114  and  _116
REMARK   43  A    between atoms: _116  and  _117
REMARK   44  A    between atoms: _116  and  _119
REMARK   45  A    between atoms: _119  and  _120
REMARK   46  A    between atoms: _120  and  _121
REMARK   47  A    between atoms: _125  and  _126
REMARK   48  A    between atoms: _131  and  _133
REMARK   49  A    between atoms: _133  and  _134
REMARK   50  A    between atoms: _133  and  _136
REMARK   51  A    between atoms: _139  and  _141
REMARK   52  A    between atoms: _141  and  _142
REMARK   53  A    between atoms: _141  and  _144
REMARK   54  A    between atoms: _144  and  _145
REMARK   55  A    between atoms: _150  and  _151
REMARK   56  A    between atoms: _153  and  _155
REMARK   57  A    between atoms: _155  and  _156
REMARK   58  A    between atoms: _158  and  _160
REMARK   59  A    between atoms: _160  and  _161
REMARK   60  A    between atoms: _160  and  _163
REMARK   61  A    between atoms: _163  and  _164
REMARK   62  A    between atoms: _164  and  _165
REMARK   63  A    between atoms: _170  and  _172
REMARK   64  A    between atoms: _172  and  _173
REMARK   65  A    between atoms: _172  and  _175
REMARK   66  A    between atoms: _175  and  _176
REMARK   67  A    between atoms: _179  and  _181
REMARK   68  A    between atoms: _181  and  _182
REMARK   69  A    between atoms: _181  and  _184
REMARK   70  A    between atoms: _184  and  _185
REMARK   71  A    between atoms: _188  and  _190
REMARK   72  A    between atoms: _190  and  _191
REMARK   73  A    between atoms: _190  and  _193
REMARK   74  A    between atoms: _193  and  _194
REMARK   75  A    between atoms: _199  and  _201
REMARK   76  A    between atoms: _201  and  _202
REMARK   77  A    between atoms: _205  and  _207
REMARK   78  A    between atoms: _207  and  _208
REMARK   79  A    between atoms: _210  and  _212
REMARK   80  A    between atoms: _212  and  _213
REMARK   81  A    between atoms: _215  and  _217
REMARK   82  A    between atoms: _217  and  _218
REMARK   83  A    between atoms: _217  and  _220
REMARK   84  A    between atoms: _220  and  _221
REMARK   85  A    between atoms: _224  and  _226
REMARK   86  A    between atoms: _226  and  _227
REMARK   87  A    between atoms: _226  and  _229
REMARK   88  A    between atoms: _229  and  _230
REMARK   89  A    between atoms: _233  and  _235
REMARK   90  A    between atoms: _235  and  _236
REMARK   91  A    between atoms: _235  and  _238
REMARK   92  A    between atoms: _238  and  _239
REMARK   93  A    between atoms: _244  and  _246
REMARK   94  A    between atoms: _246  and  _247
REMARK   95  A    between atoms: _246  and  _249
REMARK   96  A    between atoms: _249  and  _250
REMARK   97  A    between atoms: _253  and  _255
REMARK   98  A    between atoms: _255  and  _256
REMARK   99  A    between atoms: _255  and  _258
REMARK  100  A    between atoms: _258  and  _259
REMARK  101  A    between atoms: _259  and  _260
REMARK  102  A    between atoms: _263  and  _265
REMARK  103  A    between atoms: _265  and  _266
REMARK  104  A    between atoms: _265  and  _268
REMARK  105  A    between atoms: _271  and  _273
REMARK  106  A    between atoms: _273  and  _274
REMARK  107  A    between atoms: _273  and  _276
REMARK  108  A    between atoms: _276  and  _277
REMARK  109  A    between atoms: _282  and  _284
REMARK  110  A    between atoms: _284  and  _285
REMARK  111  A    between atoms: _284  and  _287
REMARK  112  A    between atoms: _287  and  _288
REMARK  113  A    between atoms: _291  and  _293
REMARK  114  A    between atoms: _293  and  _294
REMARK  115  A    between atoms: _293  and  _296
REMARK  116  A    between atoms: _296  and  _297
REMARK  117  A    between atoms: _299  and  _301
REMARK  118  A    between atoms: _301  and  _302
REMARK  119  A    between atoms: _301  and  _304
REMARK  120  A    between atoms: _304  and  _305
REMARK  121  A    between atoms: _310  and  _312
REMARK  122  A    between atoms: _312  and  _313
REMARK  123  A    between atoms: _312  and  _315
REMARK  124  A    between atoms: _318  and  _320
REMARK  125  A    between atoms: _320  and  _321
REMARK  126  A    between atoms: _320  and  _323
REMARK  127  A    between atoms: _323  and  _324
REMARK  128  A    between atoms: _329  and  _331
REMARK  129  A    between atoms: _331  and  _332
REMARK  130  A    between atoms: _331  and  _334
REMARK  131  A    between atoms: _334  and  _335
REMARK  132  A    between atoms: _335  and  _336
REMARK  133  A    between atoms: _336  and  _337
REMARK  134  A    between atoms: _346  and  _348
REMARK  135  A    between atoms: _348  and  _349
REMARK  136  A    between atoms: _348  and  _351
REMARK  137  A    between atoms: _351  and  _352
REMARK  138  A    between atoms: _352  and  _353
REMARK  139  A    between atoms: _356  and  _358
REMARK  140  A    between atoms: _358  and  _359
REMARK  141  A    between atoms: _358  and  _361
REMARK  142  A    between atoms: _361  and  _362
REMARK  143  A    between atoms: _368  and  _370
REMARK  144  A    between atoms: _370  and  _371
REMARK  145  A    between atoms: _370  and  _373
REMARK  146  A    between atoms: _373  and  _374
REMARK  147  A    between atoms: _374  and  _375
REMARK  148  A    between atoms: _375  and  _376
REMARK  149  A    between atoms: _385  and  _387
REMARK  150  A    between atoms: _387  and  _388
REMARK  151  A    between atoms: _387  and  _390
REMARK  152  A    between atoms: _390  and  _391
REMARK  153  A    between atoms: _391  and  _392
REMARK  154  A    between atoms: _392  and  _393
REMARK  155  A    between atoms: _402  and  _404
REMARK  156  A    between atoms: _404  and  _405
REMARK  157  A    between atoms: _404  and  _407
REMARK  158  A    between atoms: _407  and  _408
REMARK  159  A    between atoms: _413  and  _415
REMARK  160  A    between atoms: _415  and  _416
REMARK  161  A    between atoms: _415  and  _418
REMARK  162  A    between atoms: _418  and  _419
REMARK  163  A    between atoms: _421  and  _423
REMARK  164  A    between atoms: _423  and  _424
REMARK  165  A    between atoms: _423  and  _426
REMARK  166  A    between atoms: _426  and  _427
REMARK  167  A    between atoms: _430  and  _432
REMARK  168  A    between atoms: _432  and  _433
REMARK  169  A    between atoms: _432  and  _435
REMARK  170  A    between atoms: _435  and  _436
REMARK  171  A    between atoms: _439  and  _441
REMARK  172  A    between atoms: _441  and  _442
REMARK  173  A    between atoms: _441  and  _444
REMARK  174  A    between atoms: _447  and  _449
REMARK  175  A    between atoms: _449  and  _450
REMARK  176  A    between atoms: _452  and  _454
REMARK  177  A    between atoms: _454  and  _455
REMARK  178  A    between atoms: _454  and  _457
REMARK  179  A    between atoms: _457  and  _458
REMARK  180  A    between atoms: _461  and  _463
REMARK  181  A    between atoms: _463  and  _464
REMARK  182  A    between atoms: _466  and  _468
REMARK  183  A    between atoms: _468  and  _469
REMARK  184  A    between atoms: _468  and  _471
REMARK  185  A    between atoms: _471  and  _472
REMARK  186  A    between atoms: _475  and  _477
REMARK  187  A    between atoms: _477  and  _478
REMARK  188  A    between atoms: _477  and  _480
REMARK  189  A    between atoms: _480  and  _481
REMARK  190  A    between atoms: _486  and  _487
REMARK  191  A    between atoms: _489  and  _491
REMARK  192  A    between atoms: _491  and  _492
REMARK  193  A    between atoms: _491  and  _494
REMARK  194  A    between atoms: _494  and  _495
REMARK  195  A    between atoms: _498  and  _500
REMARK  196  A    between atoms: _500  and  _501
REMARK  197  A    between atoms: _500  and  _503
REMARK  198  A    between atoms: _503  and  _504
REMARK  199  A    between atoms: _507  and  _509
REMARK  200  A    between atoms: _509  and  _510
REMARK  201  A    between atoms: _509  and  _512
REMARK  202  A    between atoms: _512  and  _513
REMARK  203  A    between atoms: _518  and  _520
REMARK  204  A    between atoms: _520  and  _521
REMARK  205  A    between atoms: _524  and  _526
REMARK  206  A    between atoms: _526  and  _527
REMARK  207  A    between atoms: _526  and  _529
REMARK  208  A    between atoms: _532  and  _534
REMARK  209  A    between atoms: _534  and  _535
REMARK  210  A    between atoms: _538  and  _540
REMARK  211  A    between atoms: _540  and  _541
REMARK  212  A    between atoms: _540  and  _543
REMARK  213  A    between atoms: _543  and  _544
REMARK  214  A    between atoms: _547  and  _549
REMARK  215  A    between atoms: _549  and  _550
REMARK  216  A    between atoms: _549  and  _552
REMARK  217  A    between atoms: _552  and  _553
REMARK  218  A    between atoms: _553  and  _554
REMARK  219  A    between atoms: _554  and  _555
REMARK  220  A    between atoms: _564  and  _566
REMARK  221  A    between atoms: _566  and  _567
REMARK  222  A    between atoms: _566  and  _569
REMARK  223  A    between atoms: _569  and  _570
REMARK  224  A    between atoms: _573  and  _575
REMARK  225  A    between atoms: _575  and  _576
REMARK  226  A    between atoms: _579  and  _581
REMARK  227  A    between atoms: _581  and  _582
REMARK  228  A    between atoms: _581  and  _584
REMARK  229  A    between atoms: _586  and  _588
REMARK  230  A    between atoms: _588  and  _589
REMARK  231  A    between atoms: _592  and  _594
REMARK  232  A    between atoms: _594  and  _595
REMARK  233  A    between atoms: _594  and  _597
REMARK  234  A    between atoms: _597  and  _598
REMARK  235  A    between atoms: _598  and  _599
REMARK  236  A    between atoms: _602  and  _604
REMARK  237  A    between atoms: _604  and  _605
REMARK  238  A    between atoms: _604  and  _607
REMARK  239  A    between atoms: _607  and  _608
REMARK                            x       y       z     vdW  Elec       q    Type
REMARK                         _______ _______ _______ _____ _____    ______ ____
ROOT
ATOM      1  O   HOH     1      30.022  24.355  -4.683  0.00  0.00    +0.000 OA
ENDROOT
TORSDOF 0
REMARK  Name = ../refined-set-2016/3n86/3n86_pocket.pdb
REMARK  239 active torsions:
REMARK  status: ('A' for Active; 'I' for Inactive)
REMARK    1  A    between atoms: _1  and  _3
REMARK    2  A    between atoms: _3  and  _4
REMARK    3  A    between atoms: _3  and  _6
REMARK    4  A    between atoms: _6  and  _7
REMARK    5  A    between atoms: _12  and  _14
REMARK    6  A    between atoms: _14  and  _15
REMARK    7  A    between atoms: _18  and  _19
REMARK    8  A    between atoms: _24  and  _26
REMARK    9  A    between atoms: _26  and  _27
REMARK   10  A    between atoms: _26  and  _29
REMARK   11  A    between atoms: _29  and  _30
REMARK   12  A    between atoms: _35  and  _37
REMARK   13  A    between atoms: _37  and  _38
REMARK   14  A    between atoms: _37  and  _40
REMARK   15  A    between atoms: _40  and  _41
REMARK   16  A    between atoms: _44  and  _46
REMARK   17  A    between atoms: _46  and  _47
REMARK   18  A    between atoms: _49  and  _51
REMARK   19  A    between atoms: _51  and  _52
REMARK   20  A    between atoms: _51  and  _54
REMARK   21  A    between atoms: _54  and  _55
REMARK   22  A    between atoms: _55  and  _56
REMARK   23  A    between atoms: _56  and  _57
REMARK   24  A    between atoms: _66  and  _68
REMARK   25  A    between atoms: _68  and  _69
REMARK   26  A    between atoms: _68  and  _71
REMARK   27  A    between atoms: _71  and  _72
REMARK   28  A    between atoms: _75  and  _77
REMARK   29  A    between atoms: _77  and  _78
REMARK   30  A    between atoms: _80  and  _82
REMARK   31  A    between atoms: _82  and  _83
REMARK   32  A    between atoms: _82  and  _85
REMARK   33  A    between atoms: _85  and  _86
REMARK   34  A    between atoms: _86  and  _87
REMARK   35  A    between atoms: _87  and  _88
REMARK   36  A    between atoms: _97  and  _99
REMARK   37  A    between atoms: _99  and  _100
REMARK   38  A    between atoms: _99  and  _102
REMARK   39  A    between atoms: _102  and  _103
REMARK   40  A    between atoms: _103  and  _104
REMARK   41  A    between atoms: _104  and  _105
REMARK   42  A    between atoms: _114  and  _116
REMARK   43  A    between atoms: _116  and  _117
REMARK   44  A    between atoms: _116  and  _119
REMARK   45  A    between atoms: _119  and  _120
REMARK   46  A    between atoms: _120  and  _121
REMARK   47  A    between atoms: _125  and  _126
REMARK   48  A    between atoms: _131  and  _133
REMARK   49  A    between atoms: _133  and  _134
REMARK   50  A    between atoms: _133  and  _136
REMARK   51  A    between atoms: _139  and  _141
REMARK   52  A    between atoms: _141  and  _142
REMARK   53  A    between atoms: _141  and  _144
REMARK   54  A    between atoms: _144  and  _145
REMARK   55  A    between atoms: _150  and  _151
REMARK   56  A    between atoms: _153  and  _155
REMARK   57  A    between atoms: _155  and  _156
REMARK   58  A    between atoms: _158  and  _160
REMARK   59  A    between atoms: _160  and  _161
REMARK   60  A    between atoms: _160  and  _163
REMARK   61  A    between atoms: _163  and  _164
REMARK   62  A    between atoms: _164  and  _165
REMARK   63  A    between atoms: _170  and  _172
REMARK   64  A    between atoms: _172  and  _173
REMARK   65  A    between atoms: _172  and  _175
REMARK   66  A    between atoms: _175  and  _176
REMARK   67  A    between atoms: _179  and  _181
REMARK   68  A    between atoms: _181  and  _182
REMARK   69  A    between atoms: _181  and  _184
REMARK   70  A    between atoms: _184  and  _185
REMARK   71  A    between atoms: _188  and  _190
REMARK   72  A    between atoms: _190  and  _191
REMARK   73  A    between atoms: _190  and  _193
REMARK   74  A    between atoms: _193  and  _194
REMARK   75  A    between atoms: _199  and  _201
REMARK   76  A    between atoms: _201  and  _202
REMARK   77  A    between atoms: _205  and  _207
REMARK   78  A    between atoms: _207  and  _208
REMARK   79  A    between atoms: _210  and  _212
REMARK   80  A    between atoms: _212  and  _213
REMARK   81  A    between atoms: _215  and  _217
REMARK   82  A    between atoms: _217  and  _218
REMARK   83  A    between atoms: _217  and  _220
REMARK   84  A    between atoms: _220  and  _221
REMARK   85  A    between atoms: _224  and  _226
REMARK   86  A    between atoms: _226  and  _227
REMARK   87  A    between atoms: _226  and  _229
REMARK   88  A    between atoms: _229  and  _230
REMARK   89  A    between atoms: _233  and  _235
REMARK   90  A    between atoms: _235  and  _236
REMARK   91  A    between atoms: _235  and  _238
REMARK   92  A    between atoms: _238  and  _239
REMARK   93  A    between atoms: _244  and  _246
REMARK   94  A    between atoms: _246  and  _247
REMARK   95  A    between atoms: _246  and  _249
REMARK   96  A    between atoms: _249  and  _250
REMARK   97  A    between atoms: _253  and  _255
REMARK   98  A    between atoms: _255  and  _256
REMARK   99  A    between atoms: _255  and  _258
REMARK  100  A    between atoms: _258  and  _259
REMARK  101  A    between atoms: _259  and  _260
REMARK  102  A    between atoms: _263  and  _265
REMARK  103  A    between atoms: _265  and  _266
REMARK  104  A    between atoms: _265  and  _268
REMARK  105  A    between atoms: _271  and  _273
REMARK  106  A    between atoms: _273  and  _274
REMARK  107  A    between atoms: _273  and  _276
REMARK  108  A    between atoms: _276  and  _277
REMARK  109  A    between atoms: _282  and  _284
REMARK  110  A    between atoms: _284  and  _285
REMARK  111  A    between atoms: _284  and  _287
REMARK  112  A    between atoms: _287  and  _288
REMARK  113  A    between atoms: _291  and  _293
REMARK  114  A    between atoms: _293  and  _294
REMARK  115  A    between atoms: _293  and  _296
REMARK  116  A    between atoms: _296  and  _297
REMARK  117  A    between atoms: _299  and  _301
REMARK  118  A    between atoms: _301  and  _302
REMARK  119  A    between atoms: _301  and  _304
REMARK  120  A    between atoms: _304  and  _305
REMARK  121  A    between atoms: _310  and  _312
REMARK  122  A    between atoms: _312  and  _313
REMARK  123  A    between atoms: _312  and  _315
REMARK  124  A    between atoms: _318  and  _320
REMARK  125  A    between atoms: _320  and  _321
REMARK  126  A    between atoms: _320  and  _323
REMARK  127  A    between atoms: _323  and  _324
REMARK  128  A    between atoms: _329  and  _331
REMARK  129  A    between atoms: _331  and  _332
REMARK  130  A    between atoms: _331  and  _334
REMARK  131  A    between atoms: _334  and  _335
REMARK  132  A    between atoms: _335  and  _336
REMARK  133  A    between atoms: _336  and  _337
REMARK  134  A    between atoms: _346  and  _348
REMARK  135  A    between atoms: _348  and  _349
REMARK  136  A    between atoms: _348  and  _351
REMARK  137  A    between atoms: _351  and  _352
REMARK  138  A    between atoms: _352  and  _353
REMARK  139  A    between atoms: _356  and  _358
REMARK  140  A    between atoms: _358  and  _359
REMARK  141  A    between atoms: _358  and  _361
REMARK  142  A    between atoms: _361  and  _362
REMARK  143  A    between atoms: _368  and  _370
REMARK  144  A    between atoms: _370  and  _371
REMARK  145  A    between atoms: _370  and  _373
REMARK  146  A    between atoms: _373  and  _374
REMARK  147  A    between atoms: _374  and  _375
REMARK  148  A    between atoms: _375  and  _376
REMARK  149  A    between atoms: _385  and  _387
REMARK  150  A    between atoms: _387  and  _388
REMARK  151  A    between atoms: _387  and  _390
REMARK  152  A    between atoms: _390  and  _391
REMARK  153  A    between atoms: _391  and  _392
REMARK  154  A    between atoms: _392  and  _393
REMARK  155  A    between atoms: _402  and  _404
REMARK  156  A    between atoms: _404  and  _405
REMARK  157  A    between atoms: _404  and  _407
REMARK  158  A    between atoms: _407  and  _408
REMARK  159  A    between atoms: _413  and  _415
REMARK  160  A    between atoms: _415  and  _416
REMARK  161  A    between atoms: _415  and  _418
REMARK  162  A    between atoms: _418  and  _419
REMARK  163  A    between atoms: _421  and  _423
REMARK  164  A    between atoms: _423  and  _424
REMARK  165  A    between atoms: _423  and  _426
REMARK  166  A    between atoms: _426  and  _427
REMARK  167  A    between atoms: _430  and  _432
REMARK  168  A    between atoms: _432  and  _433
REMARK  169  A    between atoms: _432  and  _435
REMARK  170  A    between atoms: _435  and  _436
REMARK  171  A    between atoms: _439  and  _441
REMARK  172  A    between atoms: _441  and  _442
REMARK  173  A    between atoms: _441  and  _444
REMARK  174  A    between atoms: _447  and  _449
REMARK  175  A    between atoms: _449  and  _450
REMARK  176  A    between atoms: _452  and  _454
REMARK  177  A    between atoms: _454  and  _455
REMARK  178  A    between atoms: _454  and  _457
REMARK  179  A    between atoms: _457  and  _458
REMARK  180  A    between atoms: _461  and  _463
REMARK  181  A    between atoms: _463  and  _464
REMARK  182  A    between atoms: _466  and  _468
REMARK  183  A    between atoms: _468  and  _469
REMARK  184  A    between atoms: _468  and  _471
REMARK  185  A    between atoms: _471  and  _472
REMARK  186  A    between atoms: _475  and  _477
REMARK  187  A    between atoms: _477  and  _478
REMARK  188  A    between atoms: _477  and  _480
REMARK  189  A    between atoms: _480  and  _481
REMARK  190  A    between atoms: _486  and  _487
REMARK  191  A    between atoms: _489  and  _491
REMARK  192  A    between atoms: _491  and  _492
REMARK  193  A    between atoms: _491  and  _494
REMARK  194  A    between atoms: _494  and  _495
REMARK  195  A    between atoms: _498  and  _500
REMARK  196  A    between atoms: _500  and  _501
REMARK  197  A    between atoms: _500  and  _503
REMARK  198  A    between atoms: _503  and  _504
REMARK  199  A    between atoms: _507  and  _509
REMARK  200  A    between atoms: _509  and  _510
REMARK  201  A    between atoms: _509  and  _512
REMARK  202  A    between atoms: _512  and  _513
REMARK  203  A    between atoms: _518  and  _520
REMARK  204  A    between atoms: _520  and  _521
REMARK  205  A    between atoms: _524  and  _526
REMARK  206  A    between atoms: _526  and  _527
REMARK  207  A    between atoms: _526  and  _529
REMARK  208  A    between atoms: _532  and  _534
REMARK  209  A    between atoms: _534  and  _535
REMARK  210  A    between atoms: _538  and  _540
REMARK  211  A    between atoms: _540  and  _541
REMARK  212  A    between atoms: _540  and  _543
REMARK  213  A    between atoms: _543  and  _544
REMARK  214  A    between atoms: _547  and  _549
REMARK  215  A    between atoms: _549  and  _550
REMARK  216  A    between atoms: _549  and  _552
REMARK  217  A    between atoms: _552  and  _553
REMARK  218  A    between atoms: _553  and  _554
REMARK  219  A    between atoms: _554  and  _555
REMARK  220  A    between atoms: _564  and  _566
REMARK  221  A    between atoms: _566  and  _567
REMARK  222  A    between atoms: _566  and  _569
REMARK  223  A    between atoms: _569  and  _570
REMARK  224  A    between atoms: _573  and  _575
REMARK  225  A    between atoms: _575  and  _576
REMARK  226  A    between atoms: _579  and  _581
REMARK  227  A    between atoms: _581  and  _582
REMARK  228  A    between atoms: _581  and  _584
REMARK  229  A    between atoms: _586  and  _588
REMARK  230  A    between atoms: _588  and  _589
REMARK  231  A    between atoms: _592  and  _594
REMARK  232  A    between atoms: _594  and  _595
REMARK  233  A    between atoms: _594  and  _597
REMARK  234  A    between atoms: _597  and  _598
REMARK  235  A    between atoms: _598  and  _599
REMARK  236  A    between atoms: _602  and  _604
REMARK  237  A    between atoms: _604  and  _605
REMARK  238  A    between atoms: _604  and  _607
REMARK  239  A    between atoms: _607  and  _608
REMARK                            x       y       z     vdW  Elec       q    Type
REMARK                         _______ _______ _______ _____ _____    ______ ____
ROOT
ATOM      1  O   HOH     1      33.539  31.252  -7.254  0.00  0.00    +0.000 OA
ENDROOT
TORSDOF 0
REMARK  Name = ../refined-set-2016/3n86/3n86_pocket.pdb
REMARK  239 active torsions:
REMARK  status: ('A' for Active; 'I' for Inactive)
REMARK    1  A    between atoms: _1  and  _3
REMARK    2  A    between atoms: _3  and  _4
REMARK    3  A    between atoms: _3  and  _6
REMARK    4  A    between atoms: _6  and  _7
REMARK    5  A    between atoms: _12  and  _14
REMARK    6  A    between atoms: _14  and  _15
REMARK    7  A    between atoms: _18  and  _19
REMARK    8  A    between atoms: _24  and  _26
REMARK    9  A    between atoms: _26  and  _27
REMARK   10  A    between atoms: _26  and  _29
REMARK   11  A    between atoms: _29  and  _30
REMARK   12  A    between atoms: _35  and  _37
REMARK   13  A    between atoms: _37  and  _38
REMARK   14  A    between atoms: _37  and  _40
REMARK   15  A    between atoms: _40  and  _41
REMARK   16  A    between atoms: _44  and  _46
REMARK   17  A    between atoms: _46  and  _47
REMARK   18  A    between atoms: _49  and  _51
REMARK   19  A    between atoms: _51  and  _52
REMARK   20  A    between atoms: _51  and  _54
REMARK   21  A    between atoms: _54  and  _55
REMARK   22  A    between atoms: _55  and  _56
REMARK   23  A    between atoms: _56  and  _57
REMARK   24  A    between atoms: _66  and  _68
REMARK   25  A    between atoms: _68  and  _69
REMARK   26  A    between atoms: _68  and  _71
REMARK   27  A    between atoms: _71  and  _72
REMARK   28  A    between atoms: _75  and  _77
REMARK   29  A    between atoms: _77  and  _78
REMARK   30  A    between atoms: _80  and  _82
REMARK   31  A    between atoms: _82  and  _83
REMARK   32  A    between atoms: _82  and  _85
REMARK   33  A    between atoms: _85  and  _86
REMARK   34  A    between atoms: _86  and  _87
REMARK   35  A    between atoms: _87  and  _88
REMARK   36  A    between atoms: _97  and  _99
REMARK   37  A    between atoms: _99  and  _100
REMARK   38  A    between atoms: _99  and  _102
REMARK   39  A    between atoms: _102  and  _103
REMARK   40  A    between atoms: _103  and  _104
REMARK   41  A    between atoms: _104  and  _105
REMARK   42  A    between atoms: _114  and  _116
REMARK   43  A    between atoms: _116  and  _117
REMARK   44  A    between atoms: _116  and  _119
REMARK   45  A    between atoms: _119  and  _120
REMARK   46  A    between atoms: _120  and  _121
REMARK   47  A    between atoms: _125  and  _126
REMARK   48  A    between atoms: _131  and  _133
REMARK   49  A    between atoms: _133  and  _134
REMARK   50  A    between atoms: _133  and  _136
REMARK   51  A    between atoms: _139  and  _141
REMARK   52  A    between atoms: _141  and  _142
REMARK   53  A    between atoms: _141  and  _144
REMARK   54  A    between atoms: _144  and  _145
REMARK   55  A    between atoms: _150  and  _151
REMARK   56  A    between atoms: _153  and  _155
REMARK   57  A    between atoms: _155  and  _156
REMARK   58  A    between atoms: _158  and  _160
REMARK   59  A    between atoms: _160  and  _161
REMARK   60  A    between atoms: _160  and  _163
REMARK   61  A    between atoms: _163  and  _164
REMARK   62  A    between atoms: _164  and  _165
REMARK   63  A    between atoms: _170  and  _172
REMARK   64  A    between atoms: _172  and  _173
REMARK   65  A    between atoms: _172  and  _175
REMARK   66  A    between atoms: _175  and  _176
REMARK   67  A    between atoms: _179  and  _181
REMARK   68  A    between atoms: _181  and  _182
REMARK   69  A    between atoms: _181  and  _184
REMARK   70  A    between atoms: _184  and  _185
REMARK   71  A    between atoms: _188  and  _190
REMARK   72  A    between atoms: _190  and  _191
REMARK   73  A    between atoms: _190  and  _193
REMARK   74  A    between atoms: _193  and  _194
REMARK   75  A    between atoms: _199  and  _201
REMARK   76  A    between atoms: _201  and  _202
REMARK   77  A    between atoms: _205  and  _207
REMARK   78  A    between atoms: _207  and  _208
REMARK   79  A    between atoms: _210  and  _212
REMARK   80  A    between atoms: _212  and  _213
REMARK   81  A    between atoms: _215  and  _217
REMARK   82  A    between atoms: _217  and  _218
REMARK   83  A    between atoms: _217  and  _220
REMARK   84  A    between atoms: _220  and  _221
REMARK   85  A    between atoms: _224  and  _226
REMARK   86  A    between atoms: _226  and  _227
REMARK   87  A    between atoms: _226  and  _229
REMARK   88  A    between atoms: _229  and  _230
REMARK   89  A    between atoms: _233  and  _235
REMARK   90  A    between atoms: _235  and  _236
REMARK   91  A    between atoms: _235  and  _238
REMARK   92  A    between atoms: _238  and  _239
REMARK   93  A    between atoms: _244  and  _246
REMARK   94  A    between atoms: _246  and  _247
REMARK   95  A    between atoms: _246  and  _249
REMARK   96  A    between atoms: _249  and  _250
REMARK   97  A    between atoms: _253  and  _255
REMARK   98  A    between atoms: _255  and  _256
REMARK   99  A    between atoms: _255  and  _258
REMARK  100  A    between atoms: _258  and  _259
REMARK  101  A    between atoms: _259  and  _260
REMARK  102  A    between atoms: _263  and  _265
REMARK  103  A    between atoms: _265  and  _266
REMARK  104  A    between atoms: _265  and  _268
REMARK  105  A    between atoms: _271  and  _273
REMARK  106  A    between atoms: _273  and  _274
REMARK  107  A    between atoms: _273  and  _276
REMARK  108  A    between atoms: _276  and  _277
REMARK  109  A    between atoms: _282  and  _284
REMARK  110  A    between atoms: _284  and  _285
REMARK  111  A    between atoms: _284  and  _287
REMARK  112  A    between atoms: _287  and  _288
REMARK  113  A    between atoms: _291  and  _293
REMARK  114  A    between atoms: _293  and  _294
REMARK  115  A    between atoms: _293  and  _296
REMARK  116  A    between atoms: _296  and  _297
REMARK  117  A    between atoms: _299  and  _301
REMARK  118  A    between atoms: _301  and  _302
REMARK  119  A    between atoms: _301  and  _304
REMARK  120  A    between atoms: _304  and  _305
REMARK  121  A    between atoms: _310  and  _312
REMARK  122  A    between atoms: _312  and  _313
REMARK  123  A    between atoms: _312  and  _315
REMARK  124  A    between atoms: _318  and  _320
REMARK  125  A    between atoms: _320  and  _321
REMARK  126  A    between atoms: _320  and  _323
REMARK  127  A    between atoms: _323  and  _324
REMARK  128  A    between atoms: _329  and  _331
REMARK  129  A    between atoms: _331  and  _332
REMARK  130  A    between atoms: _331  and  _334
REMARK  131  A    between atoms: _334  and  _335
REMARK  132  A    between atoms: _335  and  _336
REMARK  133  A    between atoms: _336  and  _337
REMARK  134  A    between atoms: _346  and  _348
REMARK  135  A    between atoms: _348  and  _349
REMARK  136  A    between atoms: _348  and  _351
REMARK  137  A    between atoms: _351  and  _352
REMARK  138  A    between atoms: _352  and  _353
REMARK  139  A    between atoms: _356  and  _358
REMARK  140  A    between atoms: _358  and  _359
REMARK  141  A    between atoms: _358  and  _361
REMARK  142  A    between atoms: _361  and  _362
REMARK  143  A    between atoms: _368  and  _370
REMARK  144  A    between atoms: _370  and  _371
REMARK  145  A    between atoms: _370  and  _373
REMARK  146  A    between atoms: _373  and  _374
REMARK  147  A    between atoms: _374  and  _375
REMARK  148  A    between atoms: _375  and  _376
REMARK  149  A    between atoms: _385  and  _387
REMARK  150  A    between atoms: _387  and  _388
REMARK  151  A    between atoms: _387  and  _390
REMARK  152  A    between atoms: _390  and  _391
REMARK  153  A    between atoms: _391  and  _392
REMARK  154  A    between atoms: _392  and  _393
REMARK  155  A    between atoms: _402  and  _404
REMARK  156  A    between atoms: _404  and  _405
REMARK  157  A    between atoms: _404  and  _407
REMARK  158  A    between atoms: _407  and  _408
REMARK  159  A    between atoms: _413  and  _415
REMARK  160  A    between atoms: _415  and  _416
REMARK  161  A    between atoms: _415  and  _418
REMARK  162  A    between atoms: _418  and  _419
REMARK  163  A    between atoms: _421  and  _423
REMARK  164  A    between atoms: _423  and  _424
REMARK  165  A    between atoms: _423  and  _426
REMARK  166  A    between atoms: _426  and  _427
REMARK  167  A    between atoms: _430  and  _432
REMARK  168  A    between atoms: _432  and  _433
REMARK  169  A    between atoms: _432  and  _435
REMARK  170  A    between atoms: _435  and  _436
REMARK  171  A    between atoms: _439  and  _441
REMARK  172  A    between atoms: _441  and  _442
REMARK  173  A    between atoms: _441  and  _444
REMARK  174  A    between atoms: _447  and  _449
REMARK  175  A    between atoms: _449  and  _450
REMARK  176  A    between atoms: _452  and  _454
REMARK  177  A    between atoms: _454  and  _455
REMARK  178  A    between atoms: _454  and  _457
REMARK  179  A    between atoms: _457  and  _458
REMARK  180  A    between atoms: _461  and  _463
REMARK  181  A    between atoms: _463  and  _464
REMARK  182  A    between atoms: _466  and  _468
REMARK  183  A    between atoms: _468  and  _469
REMARK  184  A    between atoms: _468  and  _471
REMARK  185  A    between atoms: _471  and  _472
REMARK  186  A    between atoms: _475  and  _477
REMARK  187  A    between atoms: _477  and  _478
REMARK  188  A    between atoms: _477  and  _480
REMARK  189  A    between atoms: _480  and  _481
REMARK  190  A    between atoms: _486  and  _487
REMARK  191  A    between atoms: _489  and  _491
REMARK  192  A    between atoms: _491  and  _492
REMARK  193  A    between atoms: _491  and  _494
REMARK  194  A    between atoms: _494  and  _495
REMARK  195  A    between atoms: _498  and  _500
REMARK  196  A    between atoms: _500  and  _501
REMARK  197  A    between atoms: _500  and  _503
REMARK  198  A    between atoms: _503  and  _504
REMARK  199  A    between atoms: _507  and  _509
REMARK  200  A    between atoms: _509  and  _510
REMARK  201  A    between atoms: _509  and  _512
REMARK  202  A    between atoms: _512  and  _513
REMARK  203  A    between atoms: _518  and  _520
REMARK  204  A    between atoms: _520  and  _521
REMARK  205  A    between atoms: _524  and  _526
REMARK  206  A    between atoms: _526  and  _527
REMARK  207  A    between atoms: _526  and  _529
REMARK  208  A    between atoms: _532  and  _534
REMARK  209  A    between atoms: _534  and  _535
REMARK  210  A    between atoms: _538  and  _540
REMARK  211  A    between atoms: _540  and  _541
REMARK  212  A    between atoms: _540  and  _543
REMARK  213  A    between atoms: _543  and  _544
REMARK  214  A    between atoms: _547  and  _549
REMARK  215  A    between atoms: _549  and  _550
REMARK  216  A    between atoms: _549  and  _552
REMARK  217  A    between atoms: _552  and  _553
REMARK  218  A    between atoms: _553  and  _554
REMARK  219  A    between atoms: _554  and  _555
REMARK  220  A    between atoms: _564  and  _566
REMARK  221  A    between atoms: _566  and  _567
REMARK  222  A    between atoms: _566  and  _569
REMARK  223  A    between atoms: _569  and  _570
REMARK  224  A    between atoms: _573  and  _575
REMARK  225  A    between atoms: _575  and  _576
REMARK  226  A    between atoms: _579  and  _581
REMARK  227  A    between atoms: _581  and  _582
REMARK  228  A    between atoms: _581  and  _584
REMARK  229  A    between atoms: _586  and  _588
REMARK  230  A    between atoms: _588  and  _589
REMARK  231  A    between atoms: _592  and  _594
REMARK  232  A    between atoms: _594  and  _595
REMARK  233  A    between atoms: _594  and  _597
REMARK  234  A    between atoms: _597  and  _598
REMARK  235  A    between atoms: _598  and  _599
REMARK  236  A    between atoms: _602  and  _604
REMARK  237  A    between atoms: _604  and  _605
REMARK  238  A    between atoms: _604  and  _607
REMARK  239  A    between atoms: _607  and  _608
REMARK                            x       y       z     vdW  Elec       q    Type
REMARK                         _______ _______ _______ _____ _____    ______ ____
ROOT
ATOM      1  O   HOH     1      29.423  18.860  -7.917  0.00  0.00    +0.000 OA
ENDROOT
TORSDOF 0
REMARK  Name = ../refined-set-2016/3n86/3n86_pocket.pdb
REMARK  239 active torsions:
REMARK  status: ('A' for Active; 'I' for Inactive)
REMARK    1  A    between atoms: _1  and  _3
REMARK    2  A    between atoms: _3  and  _4
REMARK    3  A    between atoms: _3  and  _6
REMARK    4  A    between atoms: _6  and  _7
REMARK    5  A    between atoms: _12  and  _14
REMARK    6  A    between atoms: _14  and  _15
REMARK    7  A    between atoms: _18  and  _19
REMARK    8  A    between atoms: _24  and  _26
REMARK    9  A    between atoms: _26  and  _27
REMARK   10  A    between atoms: _26  and  _29
REMARK   11  A    between atoms: _29  and  _30
REMARK   12  A    between atoms: _35  and  _37
REMARK   13  A    between atoms: _37  and  _38
REMARK   14  A    between atoms: _37  and  _40
REMARK   15  A    between atoms: _40  and  _41
REMARK   16  A    between atoms: _44  and  _46
REMARK   17  A    between atoms: _46  and  _47
REMARK   18  A    between atoms: _49  and  _51
REMARK   19  A    between atoms: _51  and  _52
REMARK   20  A    between atoms: _51  and  _54
REMARK   21  A    between atoms: _54  and  _55
REMARK   22  A    between atoms: _55  and  _56
REMARK   23  A    between atoms: _56  and  _57
REMARK   24  A    between atoms: _66  and  _68
REMARK   25  A    between atoms: _68  and  _69
REMARK   26  A    between atoms: _68  and  _71
REMARK   27  A    between atoms: _71  and  _72
REMARK   28  A    between atoms: _75  and  _77
REMARK   29  A    between atoms: _77  and  _78
REMARK   30  A    between atoms: _80  and  _82
REMARK   31  A    between atoms: _82  and  _83
REMARK   32  A    between atoms: _82  and  _85
REMARK   33  A    between atoms: _85  and  _86
REMARK   34  A    between atoms: _86  and  _87
REMARK   35  A    between atoms: _87  and  _88
REMARK   36  A    between atoms: _97  and  _99
REMARK   37  A    between atoms: _99  and  _100
REMARK   38  A    between atoms: _99  and  _102
REMARK   39  A    between atoms: _102  and  _103
REMARK   40  A    between atoms: _103  and  _104
REMARK   41  A    between atoms: _104  and  _105
REMARK   42  A    between atoms: _114  and  _116
REMARK   43  A    between atoms: _116  and  _117
REMARK   44  A    between atoms: _116  and  _119
REMARK   45  A    between atoms: _119  and  _120
REMARK   46  A    between atoms: _120  and  _121
REMARK   47  A    between atoms: _125  and  _126
REMARK   48  A    between atoms: _131  and  _133
REMARK   49  A    between atoms: _133  and  _134
REMARK   50  A    between atoms: _133  and  _136
REMARK   51  A    between atoms: _139  and  _141
REMARK   52  A    between atoms: _141  and  _142
REMARK   53  A    between atoms: _141  and  _144
REMARK   54  A    between atoms: _144  and  _145
REMARK   55  A    between atoms: _150  and  _151
REMARK   56  A    between atoms: _153  and  _155
REMARK   57  A    between atoms: _155  and  _156
REMARK   58  A    between atoms: _158  and  _160
REMARK   59  A    between atoms: _160  and  _161
REMARK   60  A    between atoms: _160  and  _163
REMARK   61  A    between atoms: _163  and  _164
REMARK   62  A    between atoms: _164  and  _165
REMARK   63  A    between atoms: _170  and  _172
REMARK   64  A    between atoms: _172  and  _173
REMARK   65  A    between atoms: _172  and  _175
REMARK   66  A    between atoms: _175  and  _176
REMARK   67  A    between atoms: _179  and  _181
REMARK   68  A    between atoms: _181  and  _182
REMARK   69  A    between atoms: _181  and  _184
REMARK   70  A    between atoms: _184  and  _185
REMARK   71  A    between atoms: _188  and  _190
REMARK   72  A    between atoms: _190  and  _191
REMARK   73  A    between atoms: _190  and  _193
REMARK   74  A    between atoms: _193  and  _194
REMARK   75  A    between atoms: _199  and  _201
REMARK   76  A    between atoms: _201  and  _202
REMARK   77  A    between atoms: _205  and  _207
REMARK   78  A    between atoms: _207  and  _208
REMARK   79  A    between atoms: _210  and  _212
REMARK   80  A    between atoms: _212  and  _213
REMARK   81  A    between atoms: _215  and  _217
REMARK   82  A    between atoms: _217  and  _218
REMARK   83  A    between atoms: _217  and  _220
REMARK   84  A    between atoms: _220  and  _221
REMARK   85  A    between atoms: _224  and  _226
REMARK   86  A    between atoms: _226  and  _227
REMARK   87  A    between atoms: _226  and  _229
REMARK   88  A    between atoms: _229  and  _230
REMARK   89  A    between atoms: _233  and  _235
REMARK   90  A    between atoms: _235  and  _236
REMARK   91  A    between atoms: _235  and  _238
REMARK   92  A    between atoms: _238  and  _239
REMARK   93  A    between atoms: _244  and  _246
REMARK   94  A    between atoms: _246  and  _247
REMARK   95  A    between atoms: _246  and  _249
REMARK   96  A    between atoms: _249  and  _250
REMARK   97  A    between atoms: _253  and  _255
REMARK   98  A    between atoms: _255  and  _256
REMARK   99  A    between atoms: _255  and  _258
REMARK  100  A    between atoms: _258  and  _259
REMARK  101  A    between atoms: _259  and  _260
REMARK  102  A    between atoms: _263  and  _265
REMARK  103  A    between atoms: _265  and  _266
REMARK  104  A    between atoms: _265  and  _268
REMARK  105  A    between atoms: _271  and  _273
REMARK  106  A    between atoms: _273  and  _274
REMARK  107  A    between atoms: _273  and  _276
REMARK  108  A    between atoms: _276  and  _277
REMARK  109  A    between atoms: _282  and  _284
REMARK  110  A    between atoms: _284  and  _285
REMARK  111  A    between atoms: _284  and  _287
REMARK  112  A    between atoms: _287  and  _288
REMARK  113  A    between atoms: _291  and  _293
REMARK  114  A    between atoms: _293  and  _294
REMARK  115  A    between atoms: _293  and  _296
REMARK  116  A    between atoms: _296  and  _297
REMARK  117  A    between atoms: _299  and  _301
REMARK  118  A    between atoms: _301  and  _302
REMARK  119  A    between atoms: _301  and  _304
REMARK  120  A    between atoms: _304  and  _305
REMARK  121  A    between atoms: _310  and  _312
REMARK  122  A    between atoms: _312  and  _313
REMARK  123  A    between atoms: _312  and  _315
REMARK  124  A    between atoms: _318  and  _320
REMARK  125  A    between atoms: _320  and  _321
REMARK  126  A    between atoms: _320  and  _323
REMARK  127  A    between atoms: _323  and  _324
REMARK  128  A    between atoms: _329  and  _331
REMARK  129  A    between atoms: _331  and  _332
REMARK  130  A    between atoms: _331  and  _334
REMARK  131  A    between atoms: _334  and  _335
REMARK  132  A    between atoms: _335  and  _336
REMARK  133  A    between atoms: _336  and  _337
REMARK  134  A    between atoms: _346  and  _348
REMARK  135  A    between atoms: _348  and  _349
REMARK  136  A    between atoms: _348  and  _351
REMARK  137  A    between atoms: _351  and  _352
REMARK  138  A    between atoms: _352  and  _353
REMARK  139  A    between atoms: _356  and  _358
REMARK  140  A    between atoms: _358  and  _359
REMARK  141  A    between atoms: _358  and  _361
REMARK  142  A    between atoms: _361  and  _362
REMARK  143  A    between atoms: _368  and  _370
REMARK  144  A    between atoms: _370  and  _371
REMARK  145  A    between atoms: _370  and  _373
REMARK  146  A    between atoms: _373  and  _374
REMARK  147  A    between atoms: _374  and  _375
REMARK  148  A    between atoms: _375  and  _376
REMARK  149  A    between atoms: _385  and  _387
REMARK  150  A    between atoms: _387  and  _388
REMARK  151  A    between atoms: _387  and  _390
REMARK  152  A    between atoms: _390  and  _391
REMARK  153  A    between atoms: _391  and  _392
REMARK  154  A    between atoms: _392  and  _393
REMARK  155  A    between atoms: _402  and  _404
REMARK  156  A    between atoms: _404  and  _405
REMARK  157  A    between atoms: _404  and  _407
REMARK  158  A    between atoms: _407  and  _408
REMARK  159  A    between atoms: _413  and  _415
REMARK  160  A    between atoms: _415  and  _416
REMARK  161  A    between atoms: _415  and  _418
REMARK  162  A    between atoms: _418  and  _419
REMARK  163  A    between atoms: _421  and  _423
REMARK  164  A    between atoms: _423  and  _424
REMARK  165  A    between atoms: _423  and  _426
REMARK  166  A    between atoms: _426  and  _427
REMARK  167  A    between atoms: _430  and  _432
REMARK  168  A    between atoms: _432  and  _433
REMARK  169  A    between atoms: _432  and  _435
REMARK  170  A    between atoms: _435  and  _436
REMARK  171  A    between atoms: _439  and  _441
REMARK  172  A    between atoms: _441  and  _442
REMARK  173  A    between atoms: _441  and  _444
REMARK  174  A    between atoms: _447  and  _449
REMARK  175  A    between atoms: _449  and  _450
REMARK  176  A    between atoms: _452  and  _454
REMARK  177  A    between atoms: _454  and  _455
REMARK  178  A    between atoms: _454  and  _457
REMARK  179  A    between atoms: _457  and  _458
REMARK  180  A    between atoms: _461  and  _463
REMARK  181  A    between atoms: _463  and  _464
REMARK  182  A    between atoms: _466  and  _468
REMARK  183  A    between atoms: _468  and  _469
REMARK  184  A    between atoms: _468  and  _471
REMARK  185  A    between atoms: _471  and  _472
REMARK  186  A    between atoms: _475  and  _477
REMARK  187  A    between atoms: _477  and  _478
REMARK  188  A    between atoms: _477  and  _480
REMARK  189  A    between atoms: _480  and  _481
REMARK  190  A    between atoms: _486  and  _487
REMARK  191  A    between atoms: _489  and  _491
REMARK  192  A    between atoms: _491  and  _492
REMARK  193  A    between atoms: _491  and  _494
REMARK  194  A    between atoms: _494  and  _495
REMARK  195  A    between atoms: _498  and  _500
REMARK  196  A    between atoms: _500  and  _501
REMARK  197  A    between atoms: _500  and  _503
REMARK  198  A    between atoms: _503  and  _504
REMARK  199  A    between atoms: _507  and  _509
REMARK  200  A    between atoms: _509  and  _510
REMARK  201  A    between atoms: _509  and  _512
REMARK  202  A    between atoms: _512  and  _513
REMARK  203  A    between atoms: _518  and  _520
REMARK  204  A    between atoms: _520  and  _521
REMARK  205  A    between atoms: _524  and  _526
REMARK  206  A    between atoms: _526  and  _527
REMARK  207  A    between atoms: _526  and  _529
REMARK  208  A    between atoms: _532  and  _534
REMARK  209  A    between atoms: _534  and  _535
REMARK  210  A    between atoms: _538  and  _540
REMARK  211  A    between atoms: _540  and  _541
REMARK  212  A    between atoms: _540  and  _543
REMARK  213  A    between atoms: _543  and  _544
REMARK  214  A    between atoms: _547  and  _549
REMARK  215  A    between atoms: _549  and  _550
REMARK  216  A    between atoms: _549  and  _552
REMARK  217  A    between atoms: _552  and  _553
REMARK  218  A    between atoms: _553  and  _554
REMARK  219  A    between atoms: _554  and  _555
REMARK  220  A    between atoms: _564  and  _566
REMARK  221  A    between atoms: _566  and  _567
REMARK  222  A    between atoms: _566  and  _569
REMARK  223  A    between atoms: _569  and  _570
REMARK  224  A    between atoms: _573  and  _575
REMARK  225  A    between atoms: _575  and  _576
REMARK  226  A    between atoms: _579  and  _581
REMARK  227  A    between atoms: _581  and  _582
REMARK  228  A    between atoms: _581  and  _584
REMARK  229  A    between atoms: _586  and  _588
REMARK  230  A    between atoms: _588  and  _589
REMARK  231  A    between atoms: _592  and  _594
REMARK  232  A    between atoms: _594  and  _595
REMARK  233  A    between atoms: _594  and  _597
REMARK  234  A    between atoms: _597  and  _598
REMARK  235  A    between atoms: _598  and  _599
REMARK  236  A    between atoms: _602  and  _604
REMARK  237  A    between atoms: _604  and  _605
REMARK  238  A    between atoms: _604  and  _607
REMARK  239  A    between atoms: _607  and  _608
REMARK                            x       y       z     vdW  Elec       q    Type
REMARK                         _______ _______ _______ _____ _____    ______ ____
ROOT
ATOM      1  O   HOH     1      24.903  25.768   8.517  0.00  0.00    +0.000 OA
ENDROOT
TORSDOF 0
REMARK  Name = ../refined-set-2016/3n86/3n86_pocket.pdb
REMARK  239 active torsions:
REMARK  status: ('A' for Active; 'I' for Inactive)
REMARK    1  A    between atoms: _1  and  _3
REMARK    2  A    between atoms: _3  and  _4
REMARK    3  A    between atoms: _3  and  _6
REMARK    4  A    between atoms: _6  and  _7
REMARK    5  A    between atoms: _12  and  _14
REMARK    6  A    between atoms: _14  and  _15
REMARK    7  A    between atoms: _18  and  _19
REMARK    8  A    between atoms: _24  and  _26
REMARK    9  A    between atoms: _26  and  _27
REMARK   10  A    between atoms: _26  and  _29
REMARK   11  A    between atoms: _29  and  _30
REMARK   12  A    between atoms: _35  and  _37
REMARK   13  A    between atoms: _37  and  _38
REMARK   14  A    between atoms: _37  and  _40
REMARK   15  A    between atoms: _40  and  _41
REMARK   16  A    between atoms: _44  and  _46
REMARK   17  A    between atoms: _46  and  _47
REMARK   18  A    between atoms: _49  and  _51
REMARK   19  A    between atoms: _51  and  _52
REMARK   20  A    between atoms: _51  and  _54
REMARK   21  A    between atoms: _54  and  _55
REMARK   22  A    between atoms: _55  and  _56
REMARK   23  A    between atoms: _56  and  _57
REMARK   24  A    between atoms: _66  and  _68
REMARK   25  A    between atoms: _68  and  _69
REMARK   26  A    between atoms: _68  and  _71
REMARK   27  A    between atoms: _71  and  _72
REMARK   28  A    between atoms: _75  and  _77
REMARK   29  A    between atoms: _77  and  _78
REMARK   30  A    between atoms: _80  and  _82
REMARK   31  A    between atoms: _82  and  _83
REMARK   32  A    between atoms: _82  and  _85
REMARK   33  A    between atoms: _85  and  _86
REMARK   34  A    between atoms: _86  and  _87
REMARK   35  A    between atoms: _87  and  _88
REMARK   36  A    between atoms: _97  and  _99
REMARK   37  A    between atoms: _99  and  _100
REMARK   38  A    between atoms: _99  and  _102
REMARK   39  A    between atoms: _102  and  _103
REMARK   40  A    between atoms: _103  and  _104
REMARK   41  A    between atoms: _104  and  _105
REMARK   42  A    between atoms: _114  and  _116
REMARK   43  A    between atoms: _116  and  _117
REMARK   44  A    between atoms: _116  and  _119
REMARK   45  A    between atoms: _119  and  _120
REMARK   46  A    between atoms: _120  and  _121
REMARK   47  A    between atoms: _125  and  _126
REMARK   48  A    between atoms: _131  and  _133
REMARK   49  A    between atoms: _133  and  _134
REMARK   50  A    between atoms: _133  and  _136
REMARK   51  A    between atoms: _139  and  _141
REMARK   52  A    between atoms: _141  and  _142
REMARK   53  A    between atoms: _141  and  _144
REMARK   54  A    between atoms: _144  and  _145
REMARK   55  A    between atoms: _150  and  _151
REMARK   56  A    between atoms: _153  and  _155
REMARK   57  A    between atoms: _155  and  _156
REMARK   58  A    between atoms: _158  and  _160
REMARK   59  A    between atoms: _160  and  _161
REMARK   60  A    between atoms: _160  and  _163
REMARK   61  A    between atoms: _163  and  _164
REMARK   62  A    between atoms: _164  and  _165
REMARK   63  A    between atoms: _170  and  _172
REMARK   64  A    between atoms: _172  and  _173
REMARK   65  A    between atoms: _172  and  _175
REMARK   66  A    between atoms: _175  and  _176
REMARK   67  A    between atoms: _179  and  _181
REMARK   68  A    between atoms: _181  and  _182
REMARK   69  A    between atoms: _181  and  _184
REMARK   70  A    between atoms: _184  and  _185
REMARK   71  A    between atoms: _188  and  _190
REMARK   72  A    between atoms: _190  and  _191
REMARK   73  A    between atoms: _190  and  _193
REMARK   74  A    between atoms: _193  and  _194
REMARK   75  A    between atoms: _199  and  _201
REMARK   76  A    between atoms: _201  and  _202
REMARK   77  A    between atoms: _205  and  _207
REMARK   78  A    between atoms: _207  and  _208
REMARK   79  A    between atoms: _210  and  _212
REMARK   80  A    between atoms: _212  and  _213
REMARK   81  A    between atoms: _215  and  _217
REMARK   82  A    between atoms: _217  and  _218
REMARK   83  A    between atoms: _217  and  _220
REMARK   84  A    between atoms: _220  and  _221
REMARK   85  A    between atoms: _224  and  _226
REMARK   86  A    between atoms: _226  and  _227
REMARK   87  A    between atoms: _226  and  _229
REMARK   88  A    between atoms: _229  and  _230
REMARK   89  A    between atoms: _233  and  _235
REMARK   90  A    between atoms: _235  and  _236
REMARK   91  A    between atoms: _235  and  _238
REMARK   92  A    between atoms: _238  and  _239
REMARK   93  A    between atoms: _244  and  _246
REMARK   94  A    between atoms: _246  and  _247
REMARK   95  A    between atoms: _246  and  _249
REMARK   96  A    between atoms: _249  and  _250
REMARK   97  A    between atoms: _253  and  _255
REMARK   98  A    between atoms: _255  and  _256
REMARK   99  A    between atoms: _255  and  _258
REMARK  100  A    between atoms: _258  and  _259
REMARK  101  A    between atoms: _259  and  _260
REMARK  102  A    between atoms: _263  and  _265
REMARK  103  A    between atoms: _265  and  _266
REMARK  104  A    between atoms: _265  and  _268
REMARK  105  A    between atoms: _271  and  _273
REMARK  106  A    between atoms: _273  and  _274
REMARK  107  A    between atoms: _273  and  _276
REMARK  108  A    between atoms: _276  and  _277
REMARK  109  A    between atoms: _282  and  _284
REMARK  110  A    between atoms: _284  and  _285
REMARK  111  A    between atoms: _284  and  _287
REMARK  112  A    between atoms: _287  and  _288
REMARK  113  A    between atoms: _291  and  _293
REMARK  114  A    between atoms: _293  and  _294
REMARK  115  A    between atoms: _293  and  _296
REMARK  116  A    between atoms: _296  and  _297
REMARK  117  A    between atoms: _299  and  _301
REMARK  118  A    between atoms: _301  and  _302
REMARK  119  A    between atoms: _301  and  _304
REMARK  120  A    between atoms: _304  and  _305
REMARK  121  A    between atoms: _310  and  _312
REMARK  122  A    between atoms: _312  and  _313
REMARK  123  A    between atoms: _312  and  _315
REMARK  124  A    between atoms: _318  and  _320
REMARK  125  A    between atoms: _320  and  _321
REMARK  126  A    between atoms: _320  and  _323
REMARK  127  A    between atoms: _323  and  _324
REMARK  128  A    between atoms: _329  and  _331
REMARK  129  A    between atoms: _331  and  _332
REMARK  130  A    between atoms: _331  and  _334
REMARK  131  A    between atoms: _334  and  _335
REMARK  132  A    between atoms: _335  and  _336
REMARK  133  A    between atoms: _336  and  _337
REMARK  134  A    between atoms: _346  and  _348
REMARK  135  A    between atoms: _348  and  _349
REMARK  136  A    between atoms: _348  and  _351
REMARK  137  A    between atoms: _351  and  _352
REMARK  138  A    between atoms: _352  and  _353
REMARK  139  A    between atoms: _356  and  _358
REMARK  140  A    between atoms: _358  and  _359
REMARK  141  A    between atoms: _358  and  _361
REMARK  142  A    between atoms: _361  and  _362
REMARK  143  A    between atoms: _368  and  _370
REMARK  144  A    between atoms: _370  and  _371
REMARK  145  A    between atoms: _370  and  _373
REMARK  146  A    between atoms: _373  and  _374
REMARK  147  A    between atoms: _374  and  _375
REMARK  148  A    between atoms: _375  and  _376
REMARK  149  A    between atoms: _385  and  _387
REMARK  150  A    between atoms: _387  and  _388
REMARK  151  A    between atoms: _387  and  _390
REMARK  152  A    between atoms: _390  and  _391
REMARK  153  A    between atoms: _391  and  _392
REMARK  154  A    between atoms: _392  and  _393
REMARK  155  A    between atoms: _402  and  _404
REMARK  156  A    between atoms: _404  and  _405
REMARK  157  A    between atoms: _404  and  _407
REMARK  158  A    between atoms: _407  and  _408
REMARK  159  A    between atoms: _413  and  _415
REMARK  160  A    between atoms: _415  and  _416
REMARK  161  A    between atoms: _415  and  _418
REMARK  162  A    between atoms: _418  and  _419
REMARK  163  A    between atoms: _421  and  _423
REMARK  164  A    between atoms: _423  and  _424
REMARK  165  A    between atoms: _423  and  _426
REMARK  166  A    between atoms: _426  and  _427
REMARK  167  A    between atoms: _430  and  _432
REMARK  168  A    between atoms: _432  and  _433
REMARK  169  A    between atoms: _432  and  _435
REMARK  170  A    between atoms: _435  and  _436
REMARK  171  A    between atoms: _439  and  _441
REMARK  172  A    between atoms: _441  and  _442
REMARK  173  A    between atoms: _441  and  _444
REMARK  174  A    between atoms: _447  and  _449
REMARK  175  A    between atoms: _449  and  _450
REMARK  176  A    between atoms: _452  and  _454
REMARK  177  A    between atoms: _454  and  _455
REMARK  178  A    between atoms: _454  and  _457
REMARK  179  A    between atoms: _457  and  _458
REMARK  180  A    between atoms: _461  and  _463
REMARK  181  A    between atoms: _463  and  _464
REMARK  182  A    between atoms: _466  and  _468
REMARK  183  A    between atoms: _468  and  _469
REMARK  184  A    between atoms: _468  and  _471
REMARK  185  A    between atoms: _471  and  _472
REMARK  186  A    between atoms: _475  and  _477
REMARK  187  A    between atoms: _477  and  _478
REMARK  188  A    between atoms: _477  and  _480
REMARK  189  A    between atoms: _480  and  _481
REMARK  190  A    between atoms: _486  and  _487
REMARK  191  A    between atoms: _489  and  _491
REMARK  192  A    between atoms: _491  and  _492
REMARK  193  A    between atoms: _491  and  _494
REMARK  194  A    between atoms: _494  and  _495
REMARK  195  A    between atoms: _498  and  _500
REMARK  196  A    between atoms: _500  and  _501
REMARK  197  A    between atoms: _500  and  _503
REMARK  198  A    between atoms: _503  and  _504
REMARK  199  A    between atoms: _507  and  _509
REMARK  200  A    between atoms: _509  and  _510
REMARK  201  A    between atoms: _509  and  _512
REMARK  202  A    between atoms: _512  and  _513
REMARK  203  A    between atoms: _518  and  _520
REMARK  204  A    between atoms: _520  and  _521
REMARK  205  A    between atoms: _524  and  _526
REMARK  206  A    between atoms: _526  and  _527
REMARK  207  A    between atoms: _526  and  _529
REMARK  208  A    between atoms: _532  and  _534
REMARK  209  A    between atoms: _534  and  _535
REMARK  210  A    between atoms: _538  and  _540
REMARK  211  A    between atoms: _540  and  _541
REMARK  212  A    between atoms: _540  and  _543
REMARK  213  A    between atoms: _543  and  _544
REMARK  214  A    between atoms: _547  and  _549
REMARK  215  A    between atoms: _549  and  _550
REMARK  216  A    between atoms: _549  and  _552
REMARK  217  A    between atoms: _552  and  _553
REMARK  218  A    between atoms: _553  and  _554
REMARK  219  A    between atoms: _554  and  _555
REMARK  220  A    between atoms: _564  and  _566
REMARK  221  A    between atoms: _566  and  _567
REMARK  222  A    between atoms: _566  and  _569
REMARK  223  A    between atoms: _569  and  _570
REMARK  224  A    between atoms: _573  and  _575
REMARK  225  A    between atoms: _575  and  _576
REMARK  226  A    between atoms: _579  and  _581
REMARK  227  A    between atoms: _581  and  _582
REMARK  228  A    between atoms: _581  and  _584
REMARK  229  A    between atoms: _586  and  _588
REMARK  230  A    between atoms: _588  and  _589
REMARK  231  A    between atoms: _592  and  _594
REMARK  232  A    between atoms: _594  and  _595
REMARK  233  A    between atoms: _594  and  _597
REMARK  234  A    between atoms: _597  and  _598
REMARK  235  A    between atoms: _598  and  _599
REMARK  236  A    between atoms: _602  and  _604
REMARK  237  A    between atoms: _604  and  _605
REMARK  238  A    between atoms: _604  and  _607
REMARK  239  A    between atoms: _607  and  _608
REMARK                            x       y       z     vdW  Elec       q    Type
REMARK                         _______ _______ _______ _____ _____    ______ ____
ROOT
ATOM      1  O   HOH     1      29.450  15.334   4.342  0.00  0.00    +0.000 OA
ENDROOT
TORSDOF 0
REMARK  Name = ../refined-set-2016/3n86/3n86_pocket.pdb
REMARK  239 active torsions:
REMARK  status: ('A' for Active; 'I' for Inactive)
REMARK    1  A    between atoms: _1  and  _3
REMARK    2  A    between atoms: _3  and  _4
REMARK    3  A    between atoms: _3  and  _6
REMARK    4  A    between atoms: _6  and  _7
REMARK    5  A    between atoms: _12  and  _14
REMARK    6  A    between atoms: _14  and  _15
REMARK    7  A    between atoms: _18  and  _19
REMARK    8  A    between atoms: _24  and  _26
REMARK    9  A    between atoms: _26  and  _27
REMARK   10  A    between atoms: _26  and  _29
REMARK   11  A    between atoms: _29  and  _30
REMARK   12  A    between atoms: _35  and  _37
REMARK   13  A    between atoms: _37  and  _38
REMARK   14  A    between atoms: _37  and  _40
REMARK   15  A    between atoms: _40  and  _41
REMARK   16  A    between atoms: _44  and  _46
REMARK   17  A    between atoms: _46  and  _47
REMARK   18  A    between atoms: _49  and  _51
REMARK   19  A    between atoms: _51  and  _52
REMARK   20  A    between atoms: _51  and  _54
REMARK   21  A    between atoms: _54  and  _55
REMARK   22  A    between atoms: _55  and  _56
REMARK   23  A    between atoms: _56  and  _57
REMARK   24  A    between atoms: _66  and  _68
REMARK   25  A    between atoms: _68  and  _69
REMARK   26  A    between atoms: _68  and  _71
REMARK   27  A    between atoms: _71  and  _72
REMARK   28  A    between atoms: _75  and  _77
REMARK   29  A    between atoms: _77  and  _78
REMARK   30  A    between atoms: _80  and  _82
REMARK   31  A    between atoms: _82  and  _83
REMARK   32  A    between atoms: _82  and  _85
REMARK   33  A    between atoms: _85  and  _86
REMARK   34  A    between atoms: _86  and  _87
REMARK   35  A    between atoms: _87  and  _88
REMARK   36  A    between atoms: _97  and  _99
REMARK   37  A    between atoms: _99  and  _100
REMARK   38  A    between atoms: _99  and  _102
REMARK   39  A    between atoms: _102  and  _103
REMARK   40  A    between atoms: _103  and  _104
REMARK   41  A    between atoms: _104  and  _105
REMARK   42  A    between atoms: _114  and  _116
REMARK   43  A    between atoms: _116  and  _117
REMARK   44  A    between atoms: _116  and  _119
REMARK   45  A    between atoms: _119  and  _120
REMARK   46  A    between atoms: _120  and  _121
REMARK   47  A    between atoms: _125  and  _126
REMARK   48  A    between atoms: _131  and  _133
REMARK   49  A    between atoms: _133  and  _134
REMARK   50  A    between atoms: _133  and  _136
REMARK   51  A    between atoms: _139  and  _141
REMARK   52  A    between atoms: _141  and  _142
REMARK   53  A    between atoms: _141  and  _144
REMARK   54  A    between atoms: _144  and  _145
REMARK   55  A    between atoms: _150  and  _151
REMARK   56  A    between atoms: _153  and  _155
REMARK   57  A    between atoms: _155  and  _156
REMARK   58  A    between atoms: _158  and  _160
REMARK   59  A    between atoms: _160  and  _161
REMARK   60  A    between atoms: _160  and  _163
REMARK   61  A    between atoms: _163  and  _164
REMARK   62  A    between atoms: _164  and  _165
REMARK   63  A    between atoms: _170  and  _172
REMARK   64  A    between atoms: _172  and  _173
REMARK   65  A    between atoms: _172  and  _175
REMARK   66  A    between atoms: _175  and  _176
REMARK   67  A    between atoms: _179  and  _181
REMARK   68  A    between atoms: _181  and  _182
REMARK   69  A    between atoms: _181  and  _184
REMARK   70  A    between atoms: _184  and  _185
REMARK   71  A    between atoms: _188  and  _190
REMARK   72  A    between atoms: _190  and  _191
REMARK   73  A    between atoms: _190  and  _193
REMARK   74  A    between atoms: _193  and  _194
REMARK   75  A    between atoms: _199  and  _201
REMARK   76  A    between atoms: _201  and  _202
REMARK   77  A    between atoms: _205  and  _207
REMARK   78  A    between atoms: _207  and  _208
REMARK   79  A    between atoms: _210  and  _212
REMARK   80  A    between atoms: _212  and  _213
REMARK   81  A    between atoms: _215  and  _217
REMARK   82  A    between atoms: _217  and  _218
REMARK   83  A    between atoms: _217  and  _220
REMARK   84  A    between atoms: _220  and  _221
REMARK   85  A    between atoms: _224  and  _226
REMARK   86  A    between atoms: _226  and  _227
REMARK   87  A    between atoms: _226  and  _229
REMARK   88  A    between atoms: _229  and  _230
REMARK   89  A    between atoms: _233  and  _235
REMARK   90  A    between atoms: _235  and  _236
REMARK   91  A    between atoms: _235  and  _238
REMARK   92  A    between atoms: _238  and  _239
REMARK   93  A    between atoms: _244  and  _246
REMARK   94  A    between atoms: _246  and  _247
REMARK   95  A    between atoms: _246  and  _249
REMARK   96  A    between atoms: _249  and  _250
REMARK   97  A    between atoms: _253  and  _255
REMARK   98  A    between atoms: _255  and  _256
REMARK   99  A    between atoms: _255  and  _258
REMARK  100  A    between atoms: _258  and  _259
REMARK  101  A    between atoms: _259  and  _260
REMARK  102  A    between atoms: _263  and  _265
REMARK  103  A    between atoms: _265  and  _266
REMARK  104  A    between atoms: _265  and  _268
REMARK  105  A    between atoms: _271  and  _273
REMARK  106  A    between atoms: _273  and  _274
REMARK  107  A    between atoms: _273  and  _276
REMARK  108  A    between atoms: _276  and  _277
REMARK  109  A    between atoms: _282  and  _284
REMARK  110  A    between atoms: _284  and  _285
REMARK  111  A    between atoms: _284  and  _287
REMARK  112  A    between atoms: _287  and  _288
REMARK  113  A    between atoms: _291  and  _293
REMARK  114  A    between atoms: _293  and  _294
REMARK  115  A    between atoms: _293  and  _296
REMARK  116  A    between atoms: _296  and  _297
REMARK  117  A    between atoms: _299  and  _301
REMARK  118  A    between atoms: _301  and  _302
REMARK  119  A    between atoms: _301  and  _304
REMARK  120  A    between atoms: _304  and  _305
REMARK  121  A    between atoms: _310  and  _312
REMARK  122  A    between atoms: _312  and  _313
REMARK  123  A    between atoms: _312  and  _315
REMARK  124  A    between atoms: _318  and  _320
REMARK  125  A    between atoms: _320  and  _321
REMARK  126  A    between atoms: _320  and  _323
REMARK  127  A    between atoms: _323  and  _324
REMARK  128  A    between atoms: _329  and  _331
REMARK  129  A    between atoms: _331  and  _332
REMARK  130  A    between atoms: _331  and  _334
REMARK  131  A    between atoms: _334  and  _335
REMARK  132  A    between atoms: _335  and  _336
REMARK  133  A    between atoms: _336  and  _337
REMARK  134  A    between atoms: _346  and  _348
REMARK  135  A    between atoms: _348  and  _349
REMARK  136  A    between atoms: _348  and  _351
REMARK  137  A    between atoms: _351  and  _352
REMARK  138  A    between atoms: _352  and  _353
REMARK  139  A    between atoms: _356  and  _358
REMARK  140  A    between atoms: _358  and  _359
REMARK  141  A    between atoms: _358  and  _361
REMARK  142  A    between atoms: _361  and  _362
REMARK  143  A    between atoms: _368  and  _370
REMARK  144  A    between atoms: _370  and  _371
REMARK  145  A    between atoms: _370  and  _373
REMARK  146  A    between atoms: _373  and  _374
REMARK  147  A    between atoms: _374  and  _375
REMARK  148  A    between atoms: _375  and  _376
REMARK  149  A    between atoms: _385  and  _387
REMARK  150  A    between atoms: _387  and  _388
REMARK  151  A    between atoms: _387  and  _390
REMARK  152  A    between atoms: _390  and  _391
REMARK  153  A    between atoms: _391  and  _392
REMARK  154  A    between atoms: _392  and  _393
REMARK  155  A    between atoms: _402  and  _404
REMARK  156  A    between atoms: _404  and  _405
REMARK  157  A    between atoms: _404  and  _407
REMARK  158  A    between atoms: _407  and  _408
REMARK  159  A    between atoms: _413  and  _415
REMARK  160  A    between atoms: _415  and  _416
REMARK  161  A    between atoms: _415  and  _418
REMARK  162  A    between atoms: _418  and  _419
REMARK  163  A    between atoms: _421  and  _423
REMARK  164  A    between atoms: _423  and  _424
REMARK  165  A    between atoms: _423  and  _426
REMARK  166  A    between atoms: _426  and  _427
REMARK  167  A    between atoms: _430  and  _432
REMARK  168  A    between atoms: _432  and  _433
REMARK  169  A    between atoms: _432  and  _435
REMARK  170  A    between atoms: _435  and  _436
REMARK  171  A    between atoms: _439  and  _441
REMARK  172  A    between atoms: _441  and  _442
REMARK  173  A    between atoms: _441  and  _444
REMARK  174  A    between atoms: _447  and  _449
REMARK  175  A    between atoms: _449  and  _450
REMARK  176  A    between atoms: _452  and  _454
REMARK  177  A    between atoms: _454  and  _455
REMARK  178  A    between atoms: _454  and  _457
REMARK  179  A    between atoms: _457  and  _458
REMARK  180  A    between atoms: _461  and  _463
REMARK  181  A    between atoms: _463  and  _464
REMARK  182  A    between atoms: _466  and  _468
REMARK  183  A    between atoms: _468  and  _469
REMARK  184  A    between atoms: _468  and  _471
REMARK  185  A    between atoms: _471  and  _472
REMARK  186  A    between atoms: _475  and  _477
REMARK  187  A    between atoms: _477  and  _478
REMARK  188  A    between atoms: _477  and  _480
REMARK  189  A    between atoms: _480  and  _481
REMARK  190  A    between atoms: _486  and  _487
REMARK  191  A    between atoms: _489  and  _491
REMARK  192  A    between atoms: _491  and  _492
REMARK  193  A    between atoms: _491  and  _494
REMARK  194  A    between atoms: _494  and  _495
REMARK  195  A    between atoms: _498  and  _500
REMARK  196  A    between atoms: _500  and  _501
REMARK  197  A    between atoms: _500  and  _503
REMARK  198  A    between atoms: _503  and  _504
REMARK  199  A    between atoms: _507  and  _509
REMARK  200  A    between atoms: _509  and  _510
REMARK  201  A    between atoms: _509  and  _512
REMARK  202  A    between atoms: _512  and  _513
REMARK  203  A    between atoms: _518  and  _520
REMARK  204  A    between atoms: _520  and  _521
REMARK  205  A    between atoms: _524  and  _526
REMARK  206  A    between atoms: _526  and  _527
REMARK  207  A    between atoms: _526  and  _529
REMARK  208  A    between atoms: _532  and  _534
REMARK  209  A    between atoms: _534  and  _535
REMARK  210  A    between atoms: _538  and  _540
REMARK  211  A    between atoms: _540  and  _541
REMARK  212  A    between atoms: _540  and  _543
REMARK  213  A    between atoms: _543  and  _544
REMARK  214  A    between atoms: _547  and  _549
REMARK  215  A    between atoms: _549  and  _550
REMARK  216  A    between atoms: _549  and  _552
REMARK  217  A    between atoms: _552  and  _553
REMARK  218  A    between atoms: _553  and  _554
REMARK  219  A    between atoms: _554  and  _555
REMARK  220  A    between atoms: _564  and  _566
REMARK  221  A    between atoms: _566  and  _567
REMARK  222  A    between atoms: _566  and  _569
REMARK  223  A    between atoms: _569  and  _570
REMARK  224  A    between atoms: _573  and  _575
REMARK  225  A    between atoms: _575  and  _576
REMARK  226  A    between atoms: _579  and  _581
REMARK  227  A    between atoms: _581  and  _582
REMARK  228  A    between atoms: _581  and  _584
REMARK  229  A    between atoms: _586  and  _588
REMARK  230  A    between atoms: _588  and  _589
REMARK  231  A    between atoms: _592  and  _594
REMARK  232  A    between atoms: _594  and  _595
REMARK  233  A    between atoms: _594  and  _597
REMARK  234  A    between atoms: _597  and  _598
REMARK  235  A    between atoms: _598  and  _599
REMARK  236  A    between atoms: _602  and  _604
REMARK  237  A    between atoms: _604  and  _605
REMARK  238  A    between atoms: _604  and  _607
REMARK  239  A    between atoms: _607  and  _608
REMARK                            x       y       z     vdW  Elec       q    Type
REMARK                         _______ _______ _______ _____ _____    ______ ____
ROOT
ATOM      1  O   HOH     1      30.883  37.861  -5.485  0.00  0.00    +0.000 OA
ENDROOT
TORSDOF 0
REMARK  Name = ../refined-set-2016/3n86/3n86_pocket.pdb
REMARK  239 active torsions:
REMARK  status: ('A' for Active; 'I' for Inactive)
REMARK    1  A    between atoms: _1  and  _3
REMARK    2  A    between atoms: _3  and  _4
REMARK    3  A    between atoms: _3  and  _6
REMARK    4  A    between atoms: _6  and  _7
REMARK    5  A    between atoms: _12  and  _14
REMARK    6  A    between atoms: _14  and  _15
REMARK    7  A    between atoms: _18  and  _19
REMARK    8  A    between atoms: _24  and  _26
REMARK    9  A    between atoms: _26  and  _27
REMARK   10  A    between atoms: _26  and  _29
REMARK   11  A    between atoms: _29  and  _30
REMARK   12  A    between atoms: _35  and  _37
REMARK   13  A    between atoms: _37  and  _38
REMARK   14  A    between atoms: _37  and  _40
REMARK   15  A    between atoms: _40  and  _41
REMARK   16  A    between atoms: _44  and  _46
REMARK   17  A    between atoms: _46  and  _47
REMARK   18  A    between atoms: _49  and  _51
REMARK   19  A    between atoms: _51  and  _52
REMARK   20  A    between atoms: _51  and  _54
REMARK   21  A    between atoms: _54  and  _55
REMARK   22  A    between atoms: _55  and  _56
REMARK   23  A    between atoms: _56  and  _57
REMARK   24  A    between atoms: _66  and  _68
REMARK   25  A    between atoms: _68  and  _69
REMARK   26  A    between atoms: _68  and  _71
REMARK   27  A    between atoms: _71  and  _72
REMARK   28  A    between atoms: _75  and  _77
REMARK   29  A    between atoms: _77  and  _78
REMARK   30  A    between atoms: _80  and  _82
REMARK   31  A    between atoms: _82  and  _83
REMARK   32  A    between atoms: _82  and  _85
REMARK   33  A    between atoms: _85  and  _86
REMARK   34  A    between atoms: _86  and  _87
REMARK   35  A    between atoms: _87  and  _88
REMARK   36  A    between atoms: _97  and  _99
REMARK   37  A    between atoms: _99  and  _100
REMARK   38  A    between atoms: _99  and  _102
REMARK   39  A    between atoms: _102  and  _103
REMARK   40  A    between atoms: _103  and  _104
REMARK   41  A    between atoms: _104  and  _105
REMARK   42  A    between atoms: _114  and  _116
REMARK   43  A    between atoms: _116  and  _117
REMARK   44  A    between atoms: _116  and  _119
REMARK   45  A    between atoms: _119  and  _120
REMARK   46  A    between atoms: _120  and  _121
REMARK   47  A    between atoms: _125  and  _126
REMARK   48  A    between atoms: _131  and  _133
REMARK   49  A    between atoms: _133  and  _134
REMARK   50  A    between atoms: _133  and  _136
REMARK   51  A    between atoms: _139  and  _141
REMARK   52  A    between atoms: _141  and  _142
REMARK   53  A    between atoms: _141  and  _144
REMARK   54  A    between atoms: _144  and  _145
REMARK   55  A    between atoms: _150  and  _151
REMARK   56  A    between atoms: _153  and  _155
REMARK   57  A    between atoms: _155  and  _156
REMARK   58  A    between atoms: _158  and  _160
REMARK   59  A    between atoms: _160  and  _161
REMARK   60  A    between atoms: _160  and  _163
REMARK   61  A    between atoms: _163  and  _164
REMARK   62  A    between atoms: _164  and  _165
REMARK   63  A    between atoms: _170  and  _172
REMARK   64  A    between atoms: _172  and  _173
REMARK   65  A    between atoms: _172  and  _175
REMARK   66  A    between atoms: _175  and  _176
REMARK   67  A    between atoms: _179  and  _181
REMARK   68  A    between atoms: _181  and  _182
REMARK   69  A    between atoms: _181  and  _184
REMARK   70  A    between atoms: _184  and  _185
REMARK   71  A    between atoms: _188  and  _190
REMARK   72  A    between atoms: _190  and  _191
REMARK   73  A    between atoms: _190  and  _193
REMARK   74  A    between atoms: _193  and  _194
REMARK   75  A    between atoms: _199  and  _201
REMARK   76  A    between atoms: _201  and  _202
REMARK   77  A    between atoms: _205  and  _207
REMARK   78  A    between atoms: _207  and  _208
REMARK   79  A    between atoms: _210  and  _212
REMARK   80  A    between atoms: _212  and  _213
REMARK   81  A    between atoms: _215  and  _217
REMARK   82  A    between atoms: _217  and  _218
REMARK   83  A    between atoms: _217  and  _220
REMARK   84  A    between atoms: _220  and  _221
REMARK   85  A    between atoms: _224  and  _226
REMARK   86  A    between atoms: _226  and  _227
REMARK   87  A    between atoms: _226  and  _229
REMARK   88  A    between atoms: _229  and  _230
REMARK   89  A    between atoms: _233  and  _235
REMARK   90  A    between atoms: _235  and  _236
REMARK   91  A    between atoms: _235  and  _238
REMARK   92  A    between atoms: _238  and  _239
REMARK   93  A    between atoms: _244  and  _246
REMARK   94  A    between atoms: _246  and  _247
REMARK   95  A    between atoms: _246  and  _249
REMARK   96  A    between atoms: _249  and  _250
REMARK   97  A    between atoms: _253  and  _255
REMARK   98  A    between atoms: _255  and  _256
REMARK   99  A    between atoms: _255  and  _258
REMARK  100  A    between atoms: _258  and  _259
REMARK  101  A    between atoms: _259  and  _260
REMARK  102  A    between atoms: _263  and  _265
REMARK  103  A    between atoms: _265  and  _266
REMARK  104  A    between atoms: _265  and  _268
REMARK  105  A    between atoms: _271  and  _273
REMARK  106  A    between atoms: _273  and  _274
REMARK  107  A    between atoms: _273  and  _276
REMARK  108  A    between atoms: _276  and  _277
REMARK  109  A    between atoms: _282  and  _284
REMARK  110  A    between atoms: _284  and  _285
REMARK  111  A    between atoms: _284  and  _287
REMARK  112  A    between atoms: _287  and  _288
REMARK  113  A    between atoms: _291  and  _293
REMARK  114  A    between atoms: _293  and  _294
REMARK  115  A    between atoms: _293  and  _296
REMARK  116  A    between atoms: _296  and  _297
REMARK  117  A    between atoms: _299  and  _301
REMARK  118  A    between atoms: _301  and  _302
REMARK  119  A    between atoms: _301  and  _304
REMARK  120  A    between atoms: _304  and  _305
REMARK  121  A    between atoms: _310  and  _312
REMARK  122  A    between atoms: _312  and  _313
REMARK  123  A    between atoms: _312  and  _315
REMARK  124  A    between atoms: _318  and  _320
REMARK  125  A    between atoms: _320  and  _321
REMARK  126  A    between atoms: _320  and  _323
REMARK  127  A    between atoms: _323  and  _324
REMARK  128  A    between atoms: _329  and  _331
REMARK  129  A    between atoms: _331  and  _332
REMARK  130  A    between atoms: _331  and  _334
REMARK  131  A    between atoms: _334  and  _335
REMARK  132  A    between atoms: _335  and  _336
REMARK  133  A    between atoms: _336  and  _337
REMARK  134  A    between atoms: _346  and  _348
REMARK  135  A    between atoms: _348  and  _349
REMARK  136  A    between atoms: _348  and  _351
REMARK  137  A    between atoms: _351  and  _352
REMARK  138  A    between atoms: _352  and  _353
REMARK  139  A    between atoms: _356  and  _358
REMARK  140  A    between atoms: _358  and  _359
REMARK  141  A    between atoms: _358  and  _361
REMARK  142  A    between atoms: _361  and  _362
REMARK  143  A    between atoms: _368  and  _370
REMARK  144  A    between atoms: _370  and  _371
REMARK  145  A    between atoms: _370  and  _373
REMARK  146  A    between atoms: _373  and  _374
REMARK  147  A    between atoms: _374  and  _375
REMARK  148  A    between atoms: _375  and  _376
REMARK  149  A    between atoms: _385  and  _387
REMARK  150  A    between atoms: _387  and  _388
REMARK  151  A    between atoms: _387  and  _390
REMARK  152  A    between atoms: _390  and  _391
REMARK  153  A    between atoms: _391  and  _392
REMARK  154  A    between atoms: _392  and  _393
REMARK  155  A    between atoms: _402  and  _404
REMARK  156  A    between atoms: _404  and  _405
REMARK  157  A    between atoms: _404  and  _407
REMARK  158  A    between atoms: _407  and  _408
REMARK  159  A    between atoms: _413  and  _415
REMARK  160  A    between atoms: _415  and  _416
REMARK  161  A    between atoms: _415  and  _418
REMARK  162  A    between atoms: _418  and  _419
REMARK  163  A    between atoms: _421  and  _423
REMARK  164  A    between atoms: _423  and  _424
REMARK  165  A    between atoms: _423  and  _426
REMARK  166  A    between atoms: _426  and  _427
REMARK  167  A    between atoms: _430  and  _432
REMARK  168  A    between atoms: _432  and  _433
REMARK  169  A    between atoms: _432  and  _435
REMARK  170  A    between atoms: _435  and  _436
REMARK  171  A    between atoms: _439  and  _441
REMARK  172  A    between atoms: _441  and  _442
REMARK  173  A    between atoms: _441  and  _444
REMARK  174  A    between atoms: _447  and  _449
REMARK  175  A    between atoms: _449  and  _450
REMARK  176  A    between atoms: _452  and  _454
REMARK  177  A    between atoms: _454  and  _455
REMARK  178  A    between atoms: _454  and  _457
REMARK  179  A    between atoms: _457  and  _458
REMARK  180  A    between atoms: _461  and  _463
REMARK  181  A    between atoms: _463  and  _464
REMARK  182  A    between atoms: _466  and  _468
REMARK  183  A    between atoms: _468  and  _469
REMARK  184  A    between atoms: _468  and  _471
REMARK  185  A    between atoms: _471  and  _472
REMARK  186  A    between atoms: _475  and  _477
REMARK  187  A    between atoms: _477  and  _478
REMARK  188  A    between atoms: _477  and  _480
REMARK  189  A    between atoms: _480  and  _481
REMARK  190  A    between atoms: _486  and  _487
REMARK  191  A    between atoms: _489  and  _491
REMARK  192  A    between atoms: _491  and  _492
REMARK  193  A    between atoms: _491  and  _494
REMARK  194  A    between atoms: _494  and  _495
REMARK  195  A    between atoms: _498  and  _500
REMARK  196  A    between atoms: _500  and  _501
REMARK  197  A    between atoms: _500  and  _503
REMARK  198  A    between atoms: _503  and  _504
REMARK  199  A    between atoms: _507  and  _509
REMARK  200  A    between atoms: _509  and  _510
REMARK  201  A    between atoms: _509  and  _512
REMARK  202  A    between atoms: _512  and  _513
REMARK  203  A    between atoms: _518  and  _520
REMARK  204  A    between atoms: _520  and  _521
REMARK  205  A    between atoms: _524  and  _526
REMARK  206  A    between atoms: _526  and  _527
REMARK  207  A    between atoms: _526  and  _529
REMARK  208  A    between atoms: _532  and  _534
REMARK  209  A    between atoms: _534  and  _535
REMARK  210  A    between atoms: _538  and  _540
REMARK  211  A    between atoms: _540  and  _541
REMARK  212  A    between atoms: _540  and  _543
REMARK  213  A    between atoms: _543  and  _544
REMARK  214  A    between atoms: _547  and  _549
REMARK  215  A    between atoms: _549  and  _550
REMARK  216  A    between atoms: _549  and  _552
REMARK  217  A    between atoms: _552  and  _553
REMARK  218  A    between atoms: _553  and  _554
REMARK  219  A    between atoms: _554  and  _555
REMARK  220  A    between atoms: _564  and  _566
REMARK  221  A    between atoms: _566  and  _567
REMARK  222  A    between atoms: _566  and  _569
REMARK  223  A    between atoms: _569  and  _570
REMARK  224  A    between atoms: _573  and  _575
REMARK  225  A    between atoms: _575  and  _576
REMARK  226  A    between atoms: _579  and  _581
REMARK  227  A    between atoms: _581  and  _582
REMARK  228  A    between atoms: _581  and  _584
REMARK  229  A    between atoms: _586  and  _588
REMARK  230  A    between atoms: _588  and  _589
REMARK  231  A    between atoms: _592  and  _594
REMARK  232  A    between atoms: _594  and  _595
REMARK  233  A    between atoms: _594  and  _597
REMARK  234  A    between atoms: _597  and  _598
REMARK  235  A    between atoms: _598  and  _599
REMARK  236  A    between atoms: _602  and  _604
REMARK  237  A    between atoms: _604  and  _605
REMARK  238  A    between atoms: _604  and  _607
REMARK  239  A    between atoms: _607  and  _608
REMARK                            x       y       z     vdW  Elec       q    Type
REMARK                         _______ _______ _______ _____ _____    ______ ____
ROOT
ATOM      1  O   HOH     1      22.886  35.946  -2.505  0.00  0.00    +0.000 OA
ENDROOT
TORSDOF 0
REMARK  Name = ../refined-set-2016/3n86/3n86_pocket.pdb
REMARK  239 active torsions:
REMARK  status: ('A' for Active; 'I' for Inactive)
REMARK    1  A    between atoms: _1  and  _3
REMARK    2  A    between atoms: _3  and  _4
REMARK    3  A    between atoms: _3  and  _6
REMARK    4  A    between atoms: _6  and  _7
REMARK    5  A    between atoms: _12  and  _14
REMARK    6  A    between atoms: _14  and  _15
REMARK    7  A    between atoms: _18  and  _19
REMARK    8  A    between atoms: _24  and  _26
REMARK    9  A    between atoms: _26  and  _27
REMARK   10  A    between atoms: _26  and  _29
REMARK   11  A    between atoms: _29  and  _30
REMARK   12  A    between atoms: _35  and  _37
REMARK   13  A    between atoms: _37  and  _38
REMARK   14  A    between atoms: _37  and  _40
REMARK   15  A    between atoms: _40  and  _41
REMARK   16  A    between atoms: _44  and  _46
REMARK   17  A    between atoms: _46  and  _47
REMARK   18  A    between atoms: _49  and  _51
REMARK   19  A    between atoms: _51  and  _52
REMARK   20  A    between atoms: _51  and  _54
REMARK   21  A    between atoms: _54  and  _55
REMARK   22  A    between atoms: _55  and  _56
REMARK   23  A    between atoms: _56  and  _57
REMARK   24  A    between atoms: _66  and  _68
REMARK   25  A    between atoms: _68  and  _69
REMARK   26  A    between atoms: _68  and  _71
REMARK   27  A    between atoms: _71  and  _72
REMARK   28  A    between atoms: _75  and  _77
REMARK   29  A    between atoms: _77  and  _78
REMARK   30  A    between atoms: _80  and  _82
REMARK   31  A    between atoms: _82  and  _83
REMARK   32  A    between atoms: _82  and  _85
REMARK   33  A    between atoms: _85  and  _86
REMARK   34  A    between atoms: _86  and  _87
REMARK   35  A    between atoms: _87  and  _88
REMARK   36  A    between atoms: _97  and  _99
REMARK   37  A    between atoms: _99  and  _100
REMARK   38  A    between atoms: _99  and  _102
REMARK   39  A    between atoms: _102  and  _103
REMARK   40  A    between atoms: _103  and  _104
REMARK   41  A    between atoms: _104  and  _105
REMARK   42  A    between atoms: _114  and  _116
REMARK   43  A    between atoms: _116  and  _117
REMARK   44  A    between atoms: _116  and  _119
REMARK   45  A    between atoms: _119  and  _120
REMARK   46  A    between atoms: _120  and  _121
REMARK   47  A    between atoms: _125  and  _126
REMARK   48  A    between atoms: _131  and  _133
REMARK   49  A    between atoms: _133  and  _134
REMARK   50  A    between atoms: _133  and  _136
REMARK   51  A    between atoms: _139  and  _141
REMARK   52  A    between atoms: _141  and  _142
REMARK   53  A    between atoms: _141  and  _144
REMARK   54  A    between atoms: _144  and  _145
REMARK   55  A    between atoms: _150  and  _151
REMARK   56  A    between atoms: _153  and  _155
REMARK   57  A    between atoms: _155  and  _156
REMARK   58  A    between atoms: _158  and  _160
REMARK   59  A    between atoms: _160  and  _161
REMARK   60  A    between atoms: _160  and  _163
REMARK   61  A    between atoms: _163  and  _164
REMARK   62  A    between atoms: _164  and  _165
REMARK   63  A    between atoms: _170  and  _172
REMARK   64  A    between atoms: _172  and  _173
REMARK   65  A    between atoms: _172  and  _175
REMARK   66  A    between atoms: _175  and  _176
REMARK   67  A    between atoms: _179  and  _181
REMARK   68  A    between atoms: _181  and  _182
REMARK   69  A    between atoms: _181  and  _184
REMARK   70  A    between atoms: _184  and  _185
REMARK   71  A    between atoms: _188  and  _190
REMARK   72  A    between atoms: _190  and  _191
REMARK   73  A    between atoms: _190  and  _193
REMARK   74  A    between atoms: _193  and  _194
REMARK   75  A    between atoms: _199  and  _201
REMARK   76  A    between atoms: _201  and  _202
REMARK   77  A    between atoms: _205  and  _207
REMARK   78  A    between atoms: _207  and  _208
REMARK   79  A    between atoms: _210  and  _212
REMARK   80  A    between atoms: _212  and  _213
REMARK   81  A    between atoms: _215  and  _217
REMARK   82  A    between atoms: _217  and  _218
REMARK   83  A    between atoms: _217  and  _220
REMARK   84  A    between atoms: _220  and  _221
REMARK   85  A    between atoms: _224  and  _226
REMARK   86  A    between atoms: _226  and  _227
REMARK   87  A    between atoms: _226  and  _229
REMARK   88  A    between atoms: _229  and  _230
REMARK   89  A    between atoms: _233  and  _235
REMARK   90  A    between atoms: _235  and  _236
REMARK   91  A    between atoms: _235  and  _238
REMARK   92  A    between atoms: _238  and  _239
REMARK   93  A    between atoms: _244  and  _246
REMARK   94  A    between atoms: _246  and  _247
REMARK   95  A    between atoms: _246  and  _249
REMARK   96  A    between atoms: _249  and  _250
REMARK   97  A    between atoms: _253  and  _255
REMARK   98  A    between atoms: _255  and  _256
REMARK   99  A    between atoms: _255  and  _258
REMARK  100  A    between atoms: _258  and  _259
REMARK  101  A    between atoms: _259  and  _260
REMARK  102  A    between atoms: _263  and  _265
REMARK  103  A    between atoms: _265  and  _266
REMARK  104  A    between atoms: _265  and  _268
REMARK  105  A    between atoms: _271  and  _273
REMARK  106  A    between atoms: _273  and  _274
REMARK  107  A    between atoms: _273  and  _276
REMARK  108  A    between atoms: _276  and  _277
REMARK  109  A    between atoms: _282  and  _284
REMARK  110  A    between atoms: _284  and  _285
REMARK  111  A    between atoms: _284  and  _287
REMARK  112  A    between atoms: _287  and  _288
REMARK  113  A    between atoms: _291  and  _293
REMARK  114  A    between atoms: _293  and  _294
REMARK  115  A    between atoms: _293  and  _296
REMARK  116  A    between atoms: _296  and  _297
REMARK  117  A    between atoms: _299  and  _301
REMARK  118  A    between atoms: _301  and  _302
REMARK  119  A    between atoms: _301  and  _304
REMARK  120  A    between atoms: _304  and  _305
REMARK  121  A    between atoms: _310  and  _312
REMARK  122  A    between atoms: _312  and  _313
REMARK  123  A    between atoms: _312  and  _315
REMARK  124  A    between atoms: _318  and  _320
REMARK  125  A    between atoms: _320  and  _321
REMARK  126  A    between atoms: _320  and  _323
REMARK  127  A    between atoms: _323  and  _324
REMARK  128  A    between atoms: _329  and  _331
REMARK  129  A    between atoms: _331  and  _332
REMARK  130  A    between atoms: _331  and  _334
REMARK  131  A    between atoms: _334  and  _335
REMARK  132  A    between atoms: _335  and  _336
REMARK  133  A    between atoms: _336  and  _337
REMARK  134  A    between atoms: _346  and  _348
REMARK  135  A    between atoms: _348  and  _349
REMARK  136  A    between atoms: _348  and  _351
REMARK  137  A    between atoms: _351  and  _352
REMARK  138  A    between atoms: _352  and  _353
REMARK  139  A    between atoms: _356  and  _358
REMARK  140  A    between atoms: _358  and  _359
REMARK  141  A    between atoms: _358  and  _361
REMARK  142  A    between atoms: _361  and  _362
REMARK  143  A    between atoms: _368  and  _370
REMARK  144  A    between atoms: _370  and  _371
REMARK  145  A    between atoms: _370  and  _373
REMARK  146  A    between atoms: _373  and  _374
REMARK  147  A    between atoms: _374  and  _375
REMARK  148  A    between atoms: _375  and  _376
REMARK  149  A    between atoms: _385  and  _387
REMARK  150  A    between atoms: _387  and  _388
REMARK  151  A    between atoms: _387  and  _390
REMARK  152  A    between atoms: _390  and  _391
REMARK  153  A    between atoms: _391  and  _392
REMARK  154  A    between atoms: _392  and  _393
REMARK  155  A    between atoms: _402  and  _404
REMARK  156  A    between atoms: _404  and  _405
REMARK  157  A    between atoms: _404  and  _407
REMARK  158  A    between atoms: _407  and  _408
REMARK  159  A    between atoms: _413  and  _415
REMARK  160  A    between atoms: _415  and  _416
REMARK  161  A    between atoms: _415  and  _418
REMARK  162  A    between atoms: _418  and  _419
REMARK  163  A    between atoms: _421  and  _423
REMARK  164  A    between atoms: _423  and  _424
REMARK  165  A    between atoms: _423  and  _426
REMARK  166  A    between atoms: _426  and  _427
REMARK  167  A    between atoms: _430  and  _432
REMARK  168  A    between atoms: _432  and  _433
REMARK  169  A    between atoms: _432  and  _435
REMARK  170  A    between atoms: _435  and  _436
REMARK  171  A    between atoms: _439  and  _441
REMARK  172  A    between atoms: _441  and  _442
REMARK  173  A    between atoms: _441  and  _444
REMARK  174  A    between atoms: _447  and  _449
REMARK  175  A    between atoms: _449  and  _450
REMARK  176  A    between atoms: _452  and  _454
REMARK  177  A    between atoms: _454  and  _455
REMARK  178  A    between atoms: _454  and  _457
REMARK  179  A    between atoms: _457  and  _458
REMARK  180  A    between atoms: _461  and  _463
REMARK  181  A    between atoms: _463  and  _464
REMARK  182  A    between atoms: _466  and  _468
REMARK  183  A    between atoms: _468  and  _469
REMARK  184  A    between atoms: _468  and  _471
REMARK  185  A    between atoms: _471  and  _472
REMARK  186  A    between atoms: _475  and  _477
REMARK  187  A    between atoms: _477  and  _478
REMARK  188  A    between atoms: _477  and  _480
REMARK  189  A    between atoms: _480  and  _481
REMARK  190  A    between atoms: _486  and  _487
REMARK  191  A    between atoms: _489  and  _491
REMARK  192  A    between atoms: _491  and  _492
REMARK  193  A    between atoms: _491  and  _494
REMARK  194  A    between atoms: _494  and  _495
REMARK  195  A    between atoms: _498  and  _500
REMARK  196  A    between atoms: _500  and  _501
REMARK  197  A    between atoms: _500  and  _503
REMARK  198  A    between atoms: _503  and  _504
REMARK  199  A    between atoms: _507  and  _509
REMARK  200  A    between atoms: _509  and  _510
REMARK  201  A    between atoms: _509  and  _512
REMARK  202  A    between atoms: _512  and  _513
REMARK  203  A    between atoms: _518  and  _520
REMARK  204  A    between atoms: _520  and  _521
REMARK  205  A    between atoms: _524  and  _526
REMARK  206  A    between atoms: _526  and  _527
REMARK  207  A    between atoms: _526  and  _529
REMARK  208  A    between atoms: _532  and  _534
REMARK  209  A    between atoms: _534  and  _535
REMARK  210  A    between atoms: _538  and  _540
REMARK  211  A    between atoms: _540  and  _541
REMARK  212  A    between atoms: _540  and  _543
REMARK  213  A    between atoms: _543  and  _544
REMARK  214  A    between atoms: _547  and  _549
REMARK  215  A    between atoms: _549  and  _550
REMARK  216  A    between atoms: _549  and  _552
REMARK  217  A    between atoms: _552  and  _553
REMARK  218  A    between atoms: _553  and  _554
REMARK  219  A    between atoms: _554  and  _555
REMARK  220  A    between atoms: _564  and  _566
REMARK  221  A    between atoms: _566  and  _567
REMARK  222  A    between atoms: _566  and  _569
REMARK  223  A    between atoms: _569  and  _570
REMARK  224  A    between atoms: _573  and  _575
REMARK  225  A    between atoms: _575  and  _576
REMARK  226  A    between atoms: _579  and  _581
REMARK  227  A    between atoms: _581  and  _582
REMARK  228  A    between atoms: _581  and  _584
REMARK  229  A    between atoms: _586  and  _588
REMARK  230  A    between atoms: _588  and  _589
REMARK  231  A    between atoms: _592  and  _594
REMARK  232  A    between atoms: _594  and  _595
REMARK  233  A    between atoms: _594  and  _597
REMARK  234  A    between atoms: _597  and  _598
REMARK  235  A    between atoms: _598  and  _599
REMARK  236  A    between atoms: _602  and  _604
REMARK  237  A    between atoms: _604  and  _605
REMARK  238  A    between atoms: _604  and  _607
REMARK  239  A    between atoms: _607  and  _608
REMARK                            x       y       z     vdW  Elec       q    Type
REMARK                         _______ _______ _______ _____ _____    ______ ____
ROOT
ATOM      1  O   HOH     1      27.480  29.633   7.115  0.00  0.00    +0.000 OA
ENDROOT
TORSDOF 0
REMARK  Name = ../refined-set-2016/3n86/3n86_pocket.pdb
REMARK  239 active torsions:
REMARK  status: ('A' for Active; 'I' for Inactive)
REMARK    1  A    between atoms: _1  and  _3
REMARK    2  A    between atoms: _3  and  _4
REMARK    3  A    between atoms: _3  and  _6
REMARK    4  A    between atoms: _6  and  _7
REMARK    5  A    between atoms: _12  and  _14
REMARK    6  A    between atoms: _14  and  _15
REMARK    7  A    between atoms: _18  and  _19
REMARK    8  A    between atoms: _24  and  _26
REMARK    9  A    between atoms: _26  and  _27
REMARK   10  A    between atoms: _26  and  _29
REMARK   11  A    between atoms: _29  and  _30
REMARK   12  A    between atoms: _35  and  _37
REMARK   13  A    between atoms: _37  and  _38
REMARK   14  A    between atoms: _37  and  _40
REMARK   15  A    between atoms: _40  and  _41
REMARK   16  A    between atoms: _44  and  _46
REMARK   17  A    between atoms: _46  and  _47
REMARK   18  A    between atoms: _49  and  _51
REMARK   19  A    between atoms: _51  and  _52
REMARK   20  A    between atoms: _51  and  _54
REMARK   21  A    between atoms: _54  and  _55
REMARK   22  A    between atoms: _55  and  _56
REMARK   23  A    between atoms: _56  and  _57
REMARK   24  A    between atoms: _66  and  _68
REMARK   25  A    between atoms: _68  and  _69
REMARK   26  A    between atoms: _68  and  _71
REMARK   27  A    between atoms: _71  and  _72
REMARK   28  A    between atoms: _75  and  _77
REMARK   29  A    between atoms: _77  and  _78
REMARK   30  A    between atoms: _80  and  _82
REMARK   31  A    between atoms: _82  and  _83
REMARK   32  A    between atoms: _82  and  _85
REMARK   33  A    between atoms: _85  and  _86
REMARK   34  A    between atoms: _86  and  _87
REMARK   35  A    between atoms: _87  and  _88
REMARK   36  A    between atoms: _97  and  _99
REMARK   37  A    between atoms: _99  and  _100
REMARK   38  A    between atoms: _99  and  _102
REMARK   39  A    between atoms: _102  and  _103
REMARK   40  A    between atoms: _103  and  _104
REMARK   41  A    between atoms: _104  and  _105
REMARK   42  A    between atoms: _114  and  _116
REMARK   43  A    between atoms: _116  and  _117
REMARK   44  A    between atoms: _116  and  _119
REMARK   45  A    between atoms: _119  and  _120
REMARK   46  A    between atoms: _120  and  _121
REMARK   47  A    between atoms: _125  and  _126
REMARK   48  A    between atoms: _131  and  _133
REMARK   49  A    between atoms: _133  and  _134
REMARK   50  A    between atoms: _133  and  _136
REMARK   51  A    between atoms: _139  and  _141
REMARK   52  A    between atoms: _141  and  _142
REMARK   53  A    between atoms: _141  and  _144
REMARK   54  A    between atoms: _144  and  _145
REMARK   55  A    between atoms: _150  and  _151
REMARK   56  A    between atoms: _153  and  _155
REMARK   57  A    between atoms: _155  and  _156
REMARK   58  A    between atoms: _158  and  _160
REMARK   59  A    between atoms: _160  and  _161
REMARK   60  A    between atoms: _160  and  _163
REMARK   61  A    between atoms: _163  and  _164
REMARK   62  A    between atoms: _164  and  _165
REMARK   63  A    between atoms: _170  and  _172
REMARK   64  A    between atoms: _172  and  _173
REMARK   65  A    between atoms: _172  and  _175
REMARK   66  A    between atoms: _175  and  _176
REMARK   67  A    between atoms: _179  and  _181
REMARK   68  A    between atoms: _181  and  _182
REMARK   69  A    between atoms: _181  and  _184
REMARK   70  A    between atoms: _184  and  _185
REMARK   71  A    between atoms: _188  and  _190
REMARK   72  A    between atoms: _190  and  _191
REMARK   73  A    between atoms: _190  and  _193
REMARK   74  A    between atoms: _193  and  _194
REMARK   75  A    between atoms: _199  and  _201
REMARK   76  A    between atoms: _201  and  _202
REMARK   77  A    between atoms: _205  and  _207
REMARK   78  A    between atoms: _207  and  _208
REMARK   79  A    between atoms: _210  and  _212
REMARK   80  A    between atoms: _212  and  _213
REMARK   81  A    between atoms: _215  and  _217
REMARK   82  A    between atoms: _217  and  _218
REMARK   83  A    between atoms: _217  and  _220
REMARK   84  A    between atoms: _220  and  _221
REMARK   85  A    between atoms: _224  and  _226
REMARK   86  A    between atoms: _226  and  _227
REMARK   87  A    between atoms: _226  and  _229
REMARK   88  A    between atoms: _229  and  _230
REMARK   89  A    between atoms: _233  and  _235
REMARK   90  A    between atoms: _235  and  _236
REMARK   91  A    between atoms: _235  and  _238
REMARK   92  A    between atoms: _238  and  _239
REMARK   93  A    between atoms: _244  and  _246
REMARK   94  A    between atoms: _246  and  _247
REMARK   95  A    between atoms: _246  and  _249
REMARK   96  A    between atoms: _249  and  _250
REMARK   97  A    between atoms: _253  and  _255
REMARK   98  A    between atoms: _255  and  _256
REMARK   99  A    between atoms: _255  and  _258
REMARK  100  A    between atoms: _258  and  _259
REMARK  101  A    between atoms: _259  and  _260
REMARK  102  A    between atoms: _263  and  _265
REMARK  103  A    between atoms: _265  and  _266
REMARK  104  A    between atoms: _265  and  _268
REMARK  105  A    between atoms: _271  and  _273
REMARK  106  A    between atoms: _273  and  _274
REMARK  107  A    between atoms: _273  and  _276
REMARK  108  A    between atoms: _276  and  _277
REMARK  109  A    between atoms: _282  and  _284
REMARK  110  A    between atoms: _284  and  _285
REMARK  111  A    between atoms: _284  and  _287
REMARK  112  A    between atoms: _287  and  _288
REMARK  113  A    between atoms: _291  and  _293
REMARK  114  A    between atoms: _293  and  _294
REMARK  115  A    between atoms: _293  and  _296
REMARK  116  A    between atoms: _296  and  _297
REMARK  117  A    between atoms: _299  and  _301
REMARK  118  A    between atoms: _301  and  _302
REMARK  119  A    between atoms: _301  and  _304
REMARK  120  A    between atoms: _304  and  _305
REMARK  121  A    between atoms: _310  and  _312
REMARK  122  A    between atoms: _312  and  _313
REMARK  123  A    between atoms: _312  and  _315
REMARK  124  A    between atoms: _318  and  _320
REMARK  125  A    between atoms: _320  and  _321
REMARK  126  A    between atoms: _320  and  _323
REMARK  127  A    between atoms: _323  and  _324
REMARK  128  A    between atoms: _329  and  _331
REMARK  129  A    between atoms: _331  and  _332
REMARK  130  A    between atoms: _331  and  _334
REMARK  131  A    between atoms: _334  and  _335
REMARK  132  A    between atoms: _335  and  _336
REMARK  133  A    between atoms: _336  and  _337
REMARK  134  A    between atoms: _346  and  _348
REMARK  135  A    between atoms: _348  and  _349
REMARK  136  A    between atoms: _348  and  _351
REMARK  137  A    between atoms: _351  and  _352
REMARK  138  A    between atoms: _352  and  _353
REMARK  139  A    between atoms: _356  and  _358
REMARK  140  A    between atoms: _358  and  _359
REMARK  141  A    between atoms: _358  and  _361
REMARK  142  A    between atoms: _361  and  _362
REMARK  143  A    between atoms: _368  and  _370
REMARK  144  A    between atoms: _370  and  _371
REMARK  145  A    between atoms: _370  and  _373
REMARK  146  A    between atoms: _373  and  _374
REMARK  147  A    between atoms: _374  and  _375
REMARK  148  A    between atoms: _375  and  _376
REMARK  149  A    between atoms: _385  and  _387
REMARK  150  A    between atoms: _387  and  _388
REMARK  151  A    between atoms: _387  and  _390
REMARK  152  A    between atoms: _390  and  _391
REMARK  153  A    between atoms: _391  and  _392
REMARK  154  A    between atoms: _392  and  _393
REMARK  155  A    between atoms: _402  and  _404
REMARK  156  A    between atoms: _404  and  _405
REMARK  157  A    between atoms: _404  and  _407
REMARK  158  A    between atoms: _407  and  _408
REMARK  159  A    between atoms: _413  and  _415
REMARK  160  A    between atoms: _415  and  _416
REMARK  161  A    between atoms: _415  and  _418
REMARK  162  A    between atoms: _418  and  _419
REMARK  163  A    between atoms: _421  and  _423
REMARK  164  A    between atoms: _423  and  _424
REMARK  165  A    between atoms: _423  and  _426
REMARK  166  A    between atoms: _426  and  _427
REMARK  167  A    between atoms: _430  and  _432
REMARK  168  A    between atoms: _432  and  _433
REMARK  169  A    between atoms: _432  and  _435
REMARK  170  A    between atoms: _435  and  _436
REMARK  171  A    between atoms: _439  and  _441
REMARK  172  A    between atoms: _441  and  _442
REMARK  173  A    between atoms: _441  and  _444
REMARK  174  A    between atoms: _447  and  _449
REMARK  175  A    between atoms: _449  and  _450
REMARK  176  A    between atoms: _452  and  _454
REMARK  177  A    between atoms: _454  and  _455
REMARK  178  A    between atoms: _454  and  _457
REMARK  179  A    between atoms: _457  and  _458
REMARK  180  A    between atoms: _461  and  _463
REMARK  181  A    between atoms: _463  and  _464
REMARK  182  A    between atoms: _466  and  _468
REMARK  183  A    between atoms: _468  and  _469
REMARK  184  A    between atoms: _468  and  _471
REMARK  185  A    between atoms: _471  and  _472
REMARK  186  A    between atoms: _475  and  _477
REMARK  187  A    between atoms: _477  and  _478
REMARK  188  A    between atoms: _477  and  _480
REMARK  189  A    between atoms: _480  and  _481
REMARK  190  A    between atoms: _486  and  _487
REMARK  191  A    between atoms: _489  and  _491
REMARK  192  A    between atoms: _491  and  _492
REMARK  193  A    between atoms: _491  and  _494
REMARK  194  A    between atoms: _494  and  _495
REMARK  195  A    between atoms: _498  and  _500
REMARK  196  A    between atoms: _500  and  _501
REMARK  197  A    between atoms: _500  and  _503
REMARK  198  A    between atoms: _503  and  _504
REMARK  199  A    between atoms: _507  and  _509
REMARK  200  A    between atoms: _509  and  _510
REMARK  201  A    between atoms: _509  and  _512
REMARK  202  A    between atoms: _512  and  _513
REMARK  203  A    between atoms: _518  and  _520
REMARK  204  A    between atoms: _520  and  _521
REMARK  205  A    between atoms: _524  and  _526
REMARK  206  A    between atoms: _526  and  _527
REMARK  207  A    between atoms: _526  and  _529
REMARK  208  A    between atoms: _532  and  _534
REMARK  209  A    between atoms: _534  and  _535
REMARK  210  A    between atoms: _538  and  _540
REMARK  211  A    between atoms: _540  and  _541
REMARK  212  A    between atoms: _540  and  _543
REMARK  213  A    between atoms: _543  and  _544
REMARK  214  A    between atoms: _547  and  _549
REMARK  215  A    between atoms: _549  and  _550
REMARK  216  A    between atoms: _549  and  _552
REMARK  217  A    between atoms: _552  and  _553
REMARK  218  A    between atoms: _553  and  _554
REMARK  219  A    between atoms: _554  and  _555
REMARK  220  A    between atoms: _564  and  _566
REMARK  221  A    between atoms: _566  and  _567
REMARK  222  A    between atoms: _566  and  _569
REMARK  223  A    between atoms: _569  and  _570
REMARK  224  A    between atoms: _573  and  _575
REMARK  225  A    between atoms: _575  and  _576
REMARK  226  A    between atoms: _579  and  _581
REMARK  227  A    between atoms: _581  and  _582
REMARK  228  A    between atoms: _581  and  _584
REMARK  229  A    between atoms: _586  and  _588
REMARK  230  A    between atoms: _588  and  _589
REMARK  231  A    between atoms: _592  and  _594
REMARK  232  A    between atoms: _594  and  _595
REMARK  233  A    between atoms: _594  and  _597
REMARK  234  A    between atoms: _597  and  _598
REMARK  235  A    between atoms: _598  and  _599
REMARK  236  A    between atoms: _602  and  _604
REMARK  237  A    between atoms: _604  and  _605
REMARK  238  A    between atoms: _604  and  _607
REMARK  239  A    between atoms: _607  and  _608
REMARK                            x       y       z     vdW  Elec       q    Type
REMARK                         _______ _______ _______ _____ _____    ______ ____
ROOT
ATOM      1  O   HOH     1      35.730  20.057   1.719  0.00  0.00    +0.000 OA
ENDROOT
TORSDOF 0
REMARK  Name = ../refined-set-2016/3n86/3n86_pocket.pdb
REMARK  239 active torsions:
REMARK  status: ('A' for Active; 'I' for Inactive)
REMARK    1  A    between atoms: _1  and  _3
REMARK    2  A    between atoms: _3  and  _4
REMARK    3  A    between atoms: _3  and  _6
REMARK    4  A    between atoms: _6  and  _7
REMARK    5  A    between atoms: _12  and  _14
REMARK    6  A    between atoms: _14  and  _15
REMARK    7  A    between atoms: _18  and  _19
REMARK    8  A    between atoms: _24  and  _26
REMARK    9  A    between atoms: _26  and  _27
REMARK   10  A    between atoms: _26  and  _29
REMARK   11  A    between atoms: _29  and  _30
REMARK   12  A    between atoms: _35  and  _37
REMARK   13  A    between atoms: _37  and  _38
REMARK   14  A    between atoms: _37  and  _40
REMARK   15  A    between atoms: _40  and  _41
REMARK   16  A    between atoms: _44  and  _46
REMARK   17  A    between atoms: _46  and  _47
REMARK   18  A    between atoms: _49  and  _51
REMARK   19  A    between atoms: _51  and  _52
REMARK   20  A    between atoms: _51  and  _54
REMARK   21  A    between atoms: _54  and  _55
REMARK   22  A    between atoms: _55  and  _56
REMARK   23  A    between atoms: _56  and  _57
REMARK   24  A    between atoms: _66  and  _68
REMARK   25  A    between atoms: _68  and  _69
REMARK   26  A    between atoms: _68  and  _71
REMARK   27  A    between atoms: _71  and  _72
REMARK   28  A    between atoms: _75  and  _77
REMARK   29  A    between atoms: _77  and  _78
REMARK   30  A    between atoms: _80  and  _82
REMARK   31  A    between atoms: _82  and  _83
REMARK   32  A    between atoms: _82  and  _85
REMARK   33  A    between atoms: _85  and  _86
REMARK   34  A    between atoms: _86  and  _87
REMARK   35  A    between atoms: _87  and  _88
REMARK   36  A    between atoms: _97  and  _99
REMARK   37  A    between atoms: _99  and  _100
REMARK   38  A    between atoms: _99  and  _102
REMARK   39  A    between atoms: _102  and  _103
REMARK   40  A    between atoms: _103  and  _104
REMARK   41  A    between atoms: _104  and  _105
REMARK   42  A    between atoms: _114  and  _116
REMARK   43  A    between atoms: _116  and  _117
REMARK   44  A    between atoms: _116  and  _119
REMARK   45  A    between atoms: _119  and  _120
REMARK   46  A    between atoms: _120  and  _121
REMARK   47  A    between atoms: _125  and  _126
REMARK   48  A    between atoms: _131  and  _133
REMARK   49  A    between atoms: _133  and  _134
REMARK   50  A    between atoms: _133  and  _136
REMARK   51  A    between atoms: _139  and  _141
REMARK   52  A    between atoms: _141  and  _142
REMARK   53  A    between atoms: _141  and  _144
REMARK   54  A    between atoms: _144  and  _145
REMARK   55  A    between atoms: _150  and  _151
REMARK   56  A    between atoms: _153  and  _155
REMARK   57  A    between atoms: _155  and  _156
REMARK   58  A    between atoms: _158  and  _160
REMARK   59  A    between atoms: _160  and  _161
REMARK   60  A    between atoms: _160  and  _163
REMARK   61  A    between atoms: _163  and  _164
REMARK   62  A    between atoms: _164  and  _165
REMARK   63  A    between atoms: _170  and  _172
REMARK   64  A    between atoms: _172  and  _173
REMARK   65  A    between atoms: _172  and  _175
REMARK   66  A    between atoms: _175  and  _176
REMARK   67  A    between atoms: _179  and  _181
REMARK   68  A    between atoms: _181  and  _182
REMARK   69  A    between atoms: _181  and  _184
REMARK   70  A    between atoms: _184  and  _185
REMARK   71  A    between atoms: _188  and  _190
REMARK   72  A    between atoms: _190  and  _191
REMARK   73  A    between atoms: _190  and  _193
REMARK   74  A    between atoms: _193  and  _194
REMARK   75  A    between atoms: _199  and  _201
REMARK   76  A    between atoms: _201  and  _202
REMARK   77  A    between atoms: _205  and  _207
REMARK   78  A    between atoms: _207  and  _208
REMARK   79  A    between atoms: _210  and  _212
REMARK   80  A    between atoms: _212  and  _213
REMARK   81  A    between atoms: _215  and  _217
REMARK   82  A    between atoms: _217  and  _218
REMARK   83  A    between atoms: _217  and  _220
REMARK   84  A    between atoms: _220  and  _221
REMARK   85  A    between atoms: _224  and  _226
REMARK   86  A    between atoms: _226  and  _227
REMARK   87  A    between atoms: _226  and  _229
REMARK   88  A    between atoms: _229  and  _230
REMARK   89  A    between atoms: _233  and  _235
REMARK   90  A    between atoms: _235  and  _236
REMARK   91  A    between atoms: _235  and  _238
REMARK   92  A    between atoms: _238  and  _239
REMARK   93  A    between atoms: _244  and  _246
REMARK   94  A    between atoms: _246  and  _247
REMARK   95  A    between atoms: _246  and  _249
REMARK   96  A    between atoms: _249  and  _250
REMARK   97  A    between atoms: _253  and  _255
REMARK   98  A    between atoms: _255  and  _256
REMARK   99  A    between atoms: _255  and  _258
REMARK  100  A    between atoms: _258  and  _259
REMARK  101  A    between atoms: _259  and  _260
REMARK  102  A    between atoms: _263  and  _265
REMARK  103  A    between atoms: _265  and  _266
REMARK  104  A    between atoms: _265  and  _268
REMARK  105  A    between atoms: _271  and  _273
REMARK  106  A    between atoms: _273  and  _274
REMARK  107  A    between atoms: _273  and  _276
REMARK  108  A    between atoms: _276  and  _277
REMARK  109  A    between atoms: _282  and  _284
REMARK  110  A    between atoms: _284  and  _285
REMARK  111  A    between atoms: _284  and  _287
REMARK  112  A    between atoms: _287  and  _288
REMARK  113  A    between atoms: _291  and  _293
REMARK  114  A    between atoms: _293  and  _294
REMARK  115  A    between atoms: _293  and  _296
REMARK  116  A    between atoms: _296  and  _297
REMARK  117  A    between atoms: _299  and  _301
REMARK  118  A    between atoms: _301  and  _302
REMARK  119  A    between atoms: _301  and  _304
REMARK  120  A    between atoms: _304  and  _305
REMARK  121  A    between atoms: _310  and  _312
REMARK  122  A    between atoms: _312  and  _313
REMARK  123  A    between atoms: _312  and  _315
REMARK  124  A    between atoms: _318  and  _320
REMARK  125  A    between atoms: _320  and  _321
REMARK  126  A    between atoms: _320  and  _323
REMARK  127  A    between atoms: _323  and  _324
REMARK  128  A    between atoms: _329  and  _331
REMARK  129  A    between atoms: _331  and  _332
REMARK  130  A    between atoms: _331  and  _334
REMARK  131  A    between atoms: _334  and  _335
REMARK  132  A    between atoms: _335  and  _336
REMARK  133  A    between atoms: _336  and  _337
REMARK  134  A    between atoms: _346  and  _348
REMARK  135  A    between atoms: _348  and  _349
REMARK  136  A    between atoms: _348  and  _351
REMARK  137  A    between atoms: _351  and  _352
REMARK  138  A    between atoms: _352  and  _353
REMARK  139  A    between atoms: _356  and  _358
REMARK  140  A    between atoms: _358  and  _359
REMARK  141  A    between atoms: _358  and  _361
REMARK  142  A    between atoms: _361  and  _362
REMARK  143  A    between atoms: _368  and  _370
REMARK  144  A    between atoms: _370  and  _371
REMARK  145  A    between atoms: _370  and  _373
REMARK  146  A    between atoms: _373  and  _374
REMARK  147  A    between atoms: _374  and  _375
REMARK  148  A    between atoms: _375  and  _376
REMARK  149  A    between atoms: _385  and  _387
REMARK  150  A    between atoms: _387  and  _388
REMARK  151  A    between atoms: _387  and  _390
REMARK  152  A    between atoms: _390  and  _391
REMARK  153  A    between atoms: _391  and  _392
REMARK  154  A    between atoms: _392  and  _393
REMARK  155  A    between atoms: _402  and  _404
REMARK  156  A    between atoms: _404  and  _405
REMARK  157  A    between atoms: _404  and  _407
REMARK  158  A    between atoms: _407  and  _408
REMARK  159  A    between atoms: _413  and  _415
REMARK  160  A    between atoms: _415  and  _416
REMARK  161  A    between atoms: _415  and  _418
REMARK  162  A    between atoms: _418  and  _419
REMARK  163  A    between atoms: _421  and  _423
REMARK  164  A    between atoms: _423  and  _424
REMARK  165  A    between atoms: _423  and  _426
REMARK  166  A    between atoms: _426  and  _427
REMARK  167  A    between atoms: _430  and  _432
REMARK  168  A    between atoms: _432  and  _433
REMARK  169  A    between atoms: _432  and  _435
REMARK  170  A    between atoms: _435  and  _436
REMARK  171  A    between atoms: _439  and  _441
REMARK  172  A    between atoms: _441  and  _442
REMARK  173  A    between atoms: _441  and  _444
REMARK  174  A    between atoms: _447  and  _449
REMARK  175  A    between atoms: _449  and  _450
REMARK  176  A    between atoms: _452  and  _454
REMARK  177  A    between atoms: _454  and  _455
REMARK  178  A    between atoms: _454  and  _457
REMARK  179  A    between atoms: _457  and  _458
REMARK  180  A    between atoms: _461  and  _463
REMARK  181  A    between atoms: _463  and  _464
REMARK  182  A    between atoms: _466  and  _468
REMARK  183  A    between atoms: _468  and  _469
REMARK  184  A    between atoms: _468  and  _471
REMARK  185  A    between atoms: _471  and  _472
REMARK  186  A    between atoms: _475  and  _477
REMARK  187  A    between atoms: _477  and  _478
REMARK  188  A    between atoms: _477  and  _480
REMARK  189  A    between atoms: _480  and  _481
REMARK  190  A    between atoms: _486  and  _487
REMARK  191  A    between atoms: _489  and  _491
REMARK  192  A    between atoms: _491  and  _492
REMARK  193  A    between atoms: _491  and  _494
REMARK  194  A    between atoms: _494  and  _495
REMARK  195  A    between atoms: _498  and  _500
REMARK  196  A    between atoms: _500  and  _501
REMARK  197  A    between atoms: _500  and  _503
REMARK  198  A    between atoms: _503  and  _504
REMARK  199  A    between atoms: _507  and  _509
REMARK  200  A    between atoms: _509  and  _510
REMARK  201  A    between atoms: _509  and  _512
REMARK  202  A    between atoms: _512  and  _513
REMARK  203  A    between atoms: _518  and  _520
REMARK  204  A    between atoms: _520  and  _521
REMARK  205  A    between atoms: _524  and  _526
REMARK  206  A    between atoms: _526  and  _527
REMARK  207  A    between atoms: _526  and  _529
REMARK  208  A    between atoms: _532  and  _534
REMARK  209  A    between atoms: _534  and  _535
REMARK  210  A    between atoms: _538  and  _540
REMARK  211  A    between atoms: _540  and  _541
REMARK  212  A    between atoms: _540  and  _543
REMARK  213  A    between atoms: _543  and  _544
REMARK  214  A    between atoms: _547  and  _549
REMARK  215  A    between atoms: _549  and  _550
REMARK  216  A    between atoms: _549  and  _552
REMARK  217  A    between atoms: _552  and  _553
REMARK  218  A    between atoms: _553  and  _554
REMARK  219  A    between atoms: _554  and  _555
REMARK  220  A    between atoms: _564  and  _566
REMARK  221  A    between atoms: _566  and  _567
REMARK  222  A    between atoms: _566  and  _569
REMARK  223  A    between atoms: _569  and  _570
REMARK  224  A    between atoms: _573  and  _575
REMARK  225  A    between atoms: _575  and  _576
REMARK  226  A    between atoms: _579  and  _581
REMARK  227  A    between atoms: _581  and  _582
REMARK  228  A    between atoms: _581  and  _584
REMARK  229  A    between atoms: _586  and  _588
REMARK  230  A    between atoms: _588  and  _589
REMARK  231  A    between atoms: _592  and  _594
REMARK  232  A    between atoms: _594  and  _595
REMARK  233  A    between atoms: _594  and  _597
REMARK  234  A    between atoms: _597  and  _598
REMARK  235  A    between atoms: _598  and  _599
REMARK  236  A    between atoms: _602  and  _604
REMARK  237  A    between atoms: _604  and  _605
REMARK  238  A    between atoms: _604  and  _607
REMARK  239  A    between atoms: _607  and  _608
REMARK                            x       y       z     vdW  Elec       q    Type
REMARK                         _______ _______ _______ _____ _____    ______ ____
ROOT
ATOM      1  O   HOH     1      33.931  36.876  -2.183  0.00  0.00    +0.000 OA
ENDROOT
TORSDOF 0
REMARK  Name = ../refined-set-2016/3n86/3n86_pocket.pdb
REMARK  239 active torsions:
REMARK  status: ('A' for Active; 'I' for Inactive)
REMARK    1  A    between atoms: _1  and  _3
REMARK    2  A    between atoms: _3  and  _4
REMARK    3  A    between atoms: _3  and  _6
REMARK    4  A    between atoms: _6  and  _7
REMARK    5  A    between atoms: _12  and  _14
REMARK    6  A    between atoms: _14  and  _15
REMARK    7  A    between atoms: _18  and  _19
REMARK    8  A    between atoms: _24  and  _26
REMARK    9  A    between atoms: _26  and  _27
REMARK   10  A    between atoms: _26  and  _29
REMARK   11  A    between atoms: _29  and  _30
REMARK   12  A    between atoms: _35  and  _37
REMARK   13  A    between atoms: _37  and  _38
REMARK   14  A    between atoms: _37  and  _40
REMARK   15  A    between atoms: _40  and  _41
REMARK   16  A    between atoms: _44  and  _46
REMARK   17  A    between atoms: _46  and  _47
REMARK   18  A    between atoms: _49  and  _51
REMARK   19  A    between atoms: _51  and  _52
REMARK   20  A    between atoms: _51  and  _54
REMARK   21  A    between atoms: _54  and  _55
REMARK   22  A    between atoms: _55  and  _56
REMARK   23  A    between atoms: _56  and  _57
REMARK   24  A    between atoms: _66  and  _68
REMARK   25  A    between atoms: _68  and  _69
REMARK   26  A    between atoms: _68  and  _71
REMARK   27  A    between atoms: _71  and  _72
REMARK   28  A    between atoms: _75  and  _77
REMARK   29  A    between atoms: _77  and  _78
REMARK   30  A    between atoms: _80  and  _82
REMARK   31  A    between atoms: _82  and  _83
REMARK   32  A    between atoms: _82  and  _85
REMARK   33  A    between atoms: _85  and  _86
REMARK   34  A    between atoms: _86  and  _87
REMARK   35  A    between atoms: _87  and  _88
REMARK   36  A    between atoms: _97  and  _99
REMARK   37  A    between atoms: _99  and  _100
REMARK   38  A    between atoms: _99  and  _102
REMARK   39  A    between atoms: _102  and  _103
REMARK   40  A    between atoms: _103  and  _104
REMARK   41  A    between atoms: _104  and  _105
REMARK   42  A    between atoms: _114  and  _116
REMARK   43  A    between atoms: _116  and  _117
REMARK   44  A    between atoms: _116  and  _119
REMARK   45  A    between atoms: _119  and  _120
REMARK   46  A    between atoms: _120  and  _121
REMARK   47  A    between atoms: _125  and  _126
REMARK   48  A    between atoms: _131  and  _133
REMARK   49  A    between atoms: _133  and  _134
REMARK   50  A    between atoms: _133  and  _136
REMARK   51  A    between atoms: _139  and  _141
REMARK   52  A    between atoms: _141  and  _142
REMARK   53  A    between atoms: _141  and  _144
REMARK   54  A    between atoms: _144  and  _145
REMARK   55  A    between atoms: _150  and  _151
REMARK   56  A    between atoms: _153  and  _155
REMARK   57  A    between atoms: _155  and  _156
REMARK   58  A    between atoms: _158  and  _160
REMARK   59  A    between atoms: _160  and  _161
REMARK   60  A    between atoms: _160  and  _163
REMARK   61  A    between atoms: _163  and  _164
REMARK   62  A    between atoms: _164  and  _165
REMARK   63  A    between atoms: _170  and  _172
REMARK   64  A    between atoms: _172  and  _173
REMARK   65  A    between atoms: _172  and  _175
REMARK   66  A    between atoms: _175  and  _176
REMARK   67  A    between atoms: _179  and  _181
REMARK   68  A    between atoms: _181  and  _182
REMARK   69  A    between atoms: _181  and  _184
REMARK   70  A    between atoms: _184  and  _185
REMARK   71  A    between atoms: _188  and  _190
REMARK   72  A    between atoms: _190  and  _191
REMARK   73  A    between atoms: _190  and  _193
REMARK   74  A    between atoms: _193  and  _194
REMARK   75  A    between atoms: _199  and  _201
REMARK   76  A    between atoms: _201  and  _202
REMARK   77  A    between atoms: _205  and  _207
REMARK   78  A    between atoms: _207  and  _208
REMARK   79  A    between atoms: _210  and  _212
REMARK   80  A    between atoms: _212  and  _213
REMARK   81  A    between atoms: _215  and  _217
REMARK   82  A    between atoms: _217  and  _218
REMARK   83  A    between atoms: _217  and  _220
REMARK   84  A    between atoms: _220  and  _221
REMARK   85  A    between atoms: _224  and  _226
REMARK   86  A    between atoms: _226  and  _227
REMARK   87  A    between atoms: _226  and  _229
REMARK   88  A    between atoms: _229  and  _230
REMARK   89  A    between atoms: _233  and  _235
REMARK   90  A    between atoms: _235  and  _236
REMARK   91  A    between atoms: _235  and  _238
REMARK   92  A    between atoms: _238  and  _239
REMARK   93  A    between atoms: _244  and  _246
REMARK   94  A    between atoms: _246  and  _247
REMARK   95  A    between atoms: _246  and  _249
REMARK   96  A    between atoms: _249  and  _250
REMARK   97  A    between atoms: _253  and  _255
REMARK   98  A    between atoms: _255  and  _256
REMARK   99  A    between atoms: _255  and  _258
REMARK  100  A    between atoms: _258  and  _259
REMARK  101  A    between atoms: _259  and  _260
REMARK  102  A    between atoms: _263  and  _265
REMARK  103  A    between atoms: _265  and  _266
REMARK  104  A    between atoms: _265  and  _268
REMARK  105  A    between atoms: _271  and  _273
REMARK  106  A    between atoms: _273  and  _274
REMARK  107  A    between atoms: _273  and  _276
REMARK  108  A    between atoms: _276  and  _277
REMARK  109  A    between atoms: _282  and  _284
REMARK  110  A    between atoms: _284  and  _285
REMARK  111  A    between atoms: _284  and  _287
REMARK  112  A    between atoms: _287  and  _288
REMARK  113  A    between atoms: _291  and  _293
REMARK  114  A    between atoms: _293  and  _294
REMARK  115  A    between atoms: _293  and  _296
REMARK  116  A    between atoms: _296  and  _297
REMARK  117  A    between atoms: _299  and  _301
REMARK  118  A    between atoms: _301  and  _302
REMARK  119  A    between atoms: _301  and  _304
REMARK  120  A    between atoms: _304  and  _305
REMARK  121  A    between atoms: _310  and  _312
REMARK  122  A    between atoms: _312  and  _313
REMARK  123  A    between atoms: _312  and  _315
REMARK  124  A    between atoms: _318  and  _320
REMARK  125  A    between atoms: _320  and  _321
REMARK  126  A    between atoms: _320  and  _323
REMARK  127  A    between atoms: _323  and  _324
REMARK  128  A    between atoms: _329  and  _331
REMARK  129  A    between atoms: _331  and  _332
REMARK  130  A    between atoms: _331  and  _334
REMARK  131  A    between atoms: _334  and  _335
REMARK  132  A    between atoms: _335  and  _336
REMARK  133  A    between atoms: _336  and  _337
REMARK  134  A    between atoms: _346  and  _348
REMARK  135  A    between atoms: _348  and  _349
REMARK  136  A    between atoms: _348  and  _351
REMARK  137  A    between atoms: _351  and  _352
REMARK  138  A    between atoms: _352  and  _353
REMARK  139  A    between atoms: _356  and  _358
REMARK  140  A    between atoms: _358  and  _359
REMARK  141  A    between atoms: _358  and  _361
REMARK  142  A    between atoms: _361  and  _362
REMARK  143  A    between atoms: _368  and  _370
REMARK  144  A    between atoms: _370  and  _371
REMARK  145  A    between atoms: _370  and  _373
REMARK  146  A    between atoms: _373  and  _374
REMARK  147  A    between atoms: _374  and  _375
REMARK  148  A    between atoms: _375  and  _376
REMARK  149  A    between atoms: _385  and  _387
REMARK  150  A    between atoms: _387  and  _388
REMARK  151  A    between atoms: _387  and  _390
REMARK  152  A    between atoms: _390  and  _391
REMARK  153  A    between atoms: _391  and  _392
REMARK  154  A    between atoms: _392  and  _393
REMARK  155  A    between atoms: _402  and  _404
REMARK  156  A    between atoms: _404  and  _405
REMARK  157  A    between atoms: _404  and  _407
REMARK  158  A    between atoms: _407  and  _408
REMARK  159  A    between atoms: _413  and  _415
REMARK  160  A    between atoms: _415  and  _416
REMARK  161  A    between atoms: _415  and  _418
REMARK  162  A    between atoms: _418  and  _419
REMARK  163  A    between atoms: _421  and  _423
REMARK  164  A    between atoms: _423  and  _424
REMARK  165  A    between atoms: _423  and  _426
REMARK  166  A    between atoms: _426  and  _427
REMARK  167  A    between atoms: _430  and  _432
REMARK  168  A    between atoms: _432  and  _433
REMARK  169  A    between atoms: _432  and  _435
REMARK  170  A    between atoms: _435  and  _436
REMARK  171  A    between atoms: _439  and  _441
REMARK  172  A    between atoms: _441  and  _442
REMARK  173  A    between atoms: _441  and  _444
REMARK  174  A    between atoms: _447  and  _449
REMARK  175  A    between atoms: _449  and  _450
REMARK  176  A    between atoms: _452  and  _454
REMARK  177  A    between atoms: _454  and  _455
REMARK  178  A    between atoms: _454  and  _457
REMARK  179  A    between atoms: _457  and  _458
REMARK  180  A    between atoms: _461  and  _463
REMARK  181  A    between atoms: _463  and  _464
REMARK  182  A    between atoms: _466  and  _468
REMARK  183  A    between atoms: _468  and  _469
REMARK  184  A    between atoms: _468  and  _471
REMARK  185  A    between atoms: _471  and  _472
REMARK  186  A    between atoms: _475  and  _477
REMARK  187  A    between atoms: _477  and  _478
REMARK  188  A    between atoms: _477  and  _480
REMARK  189  A    between atoms: _480  and  _481
REMARK  190  A    between atoms: _486  and  _487
REMARK  191  A    between atoms: _489  and  _491
REMARK  192  A    between atoms: _491  and  _492
REMARK  193  A    between atoms: _491  and  _494
REMARK  194  A    between atoms: _494  and  _495
REMARK  195  A    between atoms: _498  and  _500
REMARK  196  A    between atoms: _500  and  _501
REMARK  197  A    between atoms: _500  and  _503
REMARK  198  A    between atoms: _503  and  _504
REMARK  199  A    between atoms: _507  and  _509
REMARK  200  A    between atoms: _509  and  _510
REMARK  201  A    between atoms: _509  and  _512
REMARK  202  A    between atoms: _512  and  _513
REMARK  203  A    between atoms: _518  and  _520
REMARK  204  A    between atoms: _520  and  _521
REMARK  205  A    between atoms: _524  and  _526
REMARK  206  A    between atoms: _526  and  _527
REMARK  207  A    between atoms: _526  and  _529
REMARK  208  A    between atoms: _532  and  _534
REMARK  209  A    between atoms: _534  and  _535
REMARK  210  A    between atoms: _538  and  _540
REMARK  211  A    between atoms: _540  and  _541
REMARK  212  A    between atoms: _540  and  _543
REMARK  213  A    between atoms: _543  and  _544
REMARK  214  A    between atoms: _547  and  _549
REMARK  215  A    between atoms: _549  and  _550
REMARK  216  A    between atoms: _549  and  _552
REMARK  217  A    between atoms: _552  and  _553
REMARK  218  A    between atoms: _553  and  _554
REMARK  219  A    between atoms: _554  and  _555
REMARK  220  A    between atoms: _564  and  _566
REMARK  221  A    between atoms: _566  and  _567
REMARK  222  A    between atoms: _566  and  _569
REMARK  223  A    between atoms: _569  and  _570
REMARK  224  A    between atoms: _573  and  _575
REMARK  225  A    between atoms: _575  and  _576
REMARK  226  A    between atoms: _579  and  _581
REMARK  227  A    between atoms: _581  and  _582
REMARK  228  A    between atoms: _581  and  _584
REMARK  229  A    between atoms: _586  and  _588
REMARK  230  A    between atoms: _588  and  _589
REMARK  231  A    between atoms: _592  and  _594
REMARK  232  A    between atoms: _594  and  _595
REMARK  233  A    between atoms: _594  and  _597
REMARK  234  A    between atoms: _597  and  _598
REMARK  235  A    between atoms: _598  and  _599
REMARK  236  A    between atoms: _602  and  _604
REMARK  237  A    between atoms: _604  and  _605
REMARK  238  A    between atoms: _604  and  _607
REMARK  239  A    between atoms: _607  and  _608
REMARK                            x       y       z     vdW  Elec       q    Type
REMARK                         _______ _______ _______ _____ _____    ______ ____
ROOT
ATOM      1  O   HOH     1      24.563  25.748  -1.301  0.00  0.00    +0.000 OA
ENDROOT
TORSDOF 0
REMARK  Name = ../refined-set-2016/3n86/3n86_pocket.pdb
REMARK  239 active torsions:
REMARK  status: ('A' for Active; 'I' for Inactive)
REMARK    1  A    between atoms: _1  and  _3
REMARK    2  A    between atoms: _3  and  _4
REMARK    3  A    between atoms: _3  and  _6
REMARK    4  A    between atoms: _6  and  _7
REMARK    5  A    between atoms: _12  and  _14
REMARK    6  A    between atoms: _14  and  _15
REMARK    7  A    between atoms: _18  and  _19
REMARK    8  A    between atoms: _24  and  _26
REMARK    9  A    between atoms: _26  and  _27
REMARK   10  A    between atoms: _26  and  _29
REMARK   11  A    between atoms: _29  and  _30
REMARK   12  A    between atoms: _35  and  _37
REMARK   13  A    between atoms: _37  and  _38
REMARK   14  A    between atoms: _37  and  _40
REMARK   15  A    between atoms: _40  and  _41
REMARK   16  A    between atoms: _44  and  _46
REMARK   17  A    between atoms: _46  and  _47
REMARK   18  A    between atoms: _49  and  _51
REMARK   19  A    between atoms: _51  and  _52
REMARK   20  A    between atoms: _51  and  _54
REMARK   21  A    between atoms: _54  and  _55
REMARK   22  A    between atoms: _55  and  _56
REMARK   23  A    between atoms: _56  and  _57
REMARK   24  A    between atoms: _66  and  _68
REMARK   25  A    between atoms: _68  and  _69
REMARK   26  A    between atoms: _68  and  _71
REMARK   27  A    between atoms: _71  and  _72
REMARK   28  A    between atoms: _75  and  _77
REMARK   29  A    between atoms: _77  and  _78
REMARK   30  A    between atoms: _80  and  _82
REMARK   31  A    between atoms: _82  and  _83
REMARK   32  A    between atoms: _82  and  _85
REMARK   33  A    between atoms: _85  and  _86
REMARK   34  A    between atoms: _86  and  _87
REMARK   35  A    between atoms: _87  and  _88
REMARK   36  A    between atoms: _97  and  _99
REMARK   37  A    between atoms: _99  and  _100
REMARK   38  A    between atoms: _99  and  _102
REMARK   39  A    between atoms: _102  and  _103
REMARK   40  A    between atoms: _103  and  _104
REMARK   41  A    between atoms: _104  and  _105
REMARK   42  A    between atoms: _114  and  _116
REMARK   43  A    between atoms: _116  and  _117
REMARK   44  A    between atoms: _116  and  _119
REMARK   45  A    between atoms: _119  and  _120
REMARK   46  A    between atoms: _120  and  _121
REMARK   47  A    between atoms: _125  and  _126
REMARK   48  A    between atoms: _131  and  _133
REMARK   49  A    between atoms: _133  and  _134
REMARK   50  A    between atoms: _133  and  _136
REMARK   51  A    between atoms: _139  and  _141
REMARK   52  A    between atoms: _141  and  _142
REMARK   53  A    between atoms: _141  and  _144
REMARK   54  A    between atoms: _144  and  _145
REMARK   55  A    between atoms: _150  and  _151
REMARK   56  A    between atoms: _153  and  _155
REMARK   57  A    between atoms: _155  and  _156
REMARK   58  A    between atoms: _158  and  _160
REMARK   59  A    between atoms: _160  and  _161
REMARK   60  A    between atoms: _160  and  _163
REMARK   61  A    between atoms: _163  and  _164
REMARK   62  A    between atoms: _164  and  _165
REMARK   63  A    between atoms: _170  and  _172
REMARK   64  A    between atoms: _172  and  _173
REMARK   65  A    between atoms: _172  and  _175
REMARK   66  A    between atoms: _175  and  _176
REMARK   67  A    between atoms: _179  and  _181
REMARK   68  A    between atoms: _181  and  _182
REMARK   69  A    between atoms: _181  and  _184
REMARK   70  A    between atoms: _184  and  _185
REMARK   71  A    between atoms: _188  and  _190
REMARK   72  A    between atoms: _190  and  _191
REMARK   73  A    between atoms: _190  and  _193
REMARK   74  A    between atoms: _193  and  _194
REMARK   75  A    between atoms: _199  and  _201
REMARK   76  A    between atoms: _201  and  _202
REMARK   77  A    between atoms: _205  and  _207
REMARK   78  A    between atoms: _207  and  _208
REMARK   79  A    between atoms: _210  and  _212
REMARK   80  A    between atoms: _212  and  _213
REMARK   81  A    between atoms: _215  and  _217
REMARK   82  A    between atoms: _217  and  _218
REMARK   83  A    between atoms: _217  and  _220
REMARK   84  A    between atoms: _220  and  _221
REMARK   85  A    between atoms: _224  and  _226
REMARK   86  A    between atoms: _226  and  _227
REMARK   87  A    between atoms: _226  and  _229
REMARK   88  A    between atoms: _229  and  _230
REMARK   89  A    between atoms: _233  and  _235
REMARK   90  A    between atoms: _235  and  _236
REMARK   91  A    between atoms: _235  and  _238
REMARK   92  A    between atoms: _238  and  _239
REMARK   93  A    between atoms: _244  and  _246
REMARK   94  A    between atoms: _246  and  _247
REMARK   95  A    between atoms: _246  and  _249
REMARK   96  A    between atoms: _249  and  _250
REMARK   97  A    between atoms: _253  and  _255
REMARK   98  A    between atoms: _255  and  _256
REMARK   99  A    between atoms: _255  and  _258
REMARK  100  A    between atoms: _258  and  _259
REMARK  101  A    between atoms: _259  and  _260
REMARK  102  A    between atoms: _263  and  _265
REMARK  103  A    between atoms: _265  and  _266
REMARK  104  A    between atoms: _265  and  _268
REMARK  105  A    between atoms: _271  and  _273
REMARK  106  A    between atoms: _273  and  _274
REMARK  107  A    between atoms: _273  and  _276
REMARK  108  A    between atoms: _276  and  _277
REMARK  109  A    between atoms: _282  and  _284
REMARK  110  A    between atoms: _284  and  _285
REMARK  111  A    between atoms: _284  and  _287
REMARK  112  A    between atoms: _287  and  _288
REMARK  113  A    between atoms: _291  and  _293
REMARK  114  A    between atoms: _293  and  _294
REMARK  115  A    between atoms: _293  and  _296
REMARK  116  A    between atoms: _296  and  _297
REMARK  117  A    between atoms: _299  and  _301
REMARK  118  A    between atoms: _301  and  _302
REMARK  119  A    between atoms: _301  and  _304
REMARK  120  A    between atoms: _304  and  _305
REMARK  121  A    between atoms: _310  and  _312
REMARK  122  A    between atoms: _312  and  _313
REMARK  123  A    between atoms: _312  and  _315
REMARK  124  A    between atoms: _318  and  _320
REMARK  125  A    between atoms: _320  and  _321
REMARK  126  A    between atoms: _320  and  _323
REMARK  127  A    between atoms: _323  and  _324
REMARK  128  A    between atoms: _329  and  _331
REMARK  129  A    between atoms: _331  and  _332
REMARK  130  A    between atoms: _331  and  _334
REMARK  131  A    between atoms: _334  and  _335
REMARK  132  A    between atoms: _335  and  _336
REMARK  133  A    between atoms: _336  and  _337
REMARK  134  A    between atoms: _346  and  _348
REMARK  135  A    between atoms: _348  and  _349
REMARK  136  A    between atoms: _348  and  _351
REMARK  137  A    between atoms: _351  and  _352
REMARK  138  A    between atoms: _352  and  _353
REMARK  139  A    between atoms: _356  and  _358
REMARK  140  A    between atoms: _358  and  _359
REMARK  141  A    between atoms: _358  and  _361
REMARK  142  A    between atoms: _361  and  _362
REMARK  143  A    between atoms: _368  and  _370
REMARK  144  A    between atoms: _370  and  _371
REMARK  145  A    between atoms: _370  and  _373
REMARK  146  A    between atoms: _373  and  _374
REMARK  147  A    between atoms: _374  and  _375
REMARK  148  A    between atoms: _375  and  _376
REMARK  149  A    between atoms: _385  and  _387
REMARK  150  A    between atoms: _387  and  _388
REMARK  151  A    between atoms: _387  and  _390
REMARK  152  A    between atoms: _390  and  _391
REMARK  153  A    between atoms: _391  and  _392
REMARK  154  A    between atoms: _392  and  _393
REMARK  155  A    between atoms: _402  and  _404
REMARK  156  A    between atoms: _404  and  _405
REMARK  157  A    between atoms: _404  and  _407
REMARK  158  A    between atoms: _407  and  _408
REMARK  159  A    between atoms: _413  and  _415
REMARK  160  A    between atoms: _415  and  _416
REMARK  161  A    between atoms: _415  and  _418
REMARK  162  A    between atoms: _418  and  _419
REMARK  163  A    between atoms: _421  and  _423
REMARK  164  A    between atoms: _423  and  _424
REMARK  165  A    between atoms: _423  and  _426
REMARK  166  A    between atoms: _426  and  _427
REMARK  167  A    between atoms: _430  and  _432
REMARK  168  A    between atoms: _432  and  _433
REMARK  169  A    between atoms: _432  and  _435
REMARK  170  A    between atoms: _435  and  _436
REMARK  171  A    between atoms: _439  and  _441
REMARK  172  A    between atoms: _441  and  _442
REMARK  173  A    between atoms: _441  and  _444
REMARK  174  A    between atoms: _447  and  _449
REMARK  175  A    between atoms: _449  and  _450
REMARK  176  A    between atoms: _452  and  _454
REMARK  177  A    between atoms: _454  and  _455
REMARK  178  A    between atoms: _454  and  _457
REMARK  179  A    between atoms: _457  and  _458
REMARK  180  A    between atoms: _461  and  _463
REMARK  181  A    between atoms: _463  and  _464
REMARK  182  A    between atoms: _466  and  _468
REMARK  183  A    between atoms: _468  and  _469
REMARK  184  A    between atoms: _468  and  _471
REMARK  185  A    between atoms: _471  and  _472
REMARK  186  A    between atoms: _475  and  _477
REMARK  187  A    between atoms: _477  and  _478
REMARK  188  A    between atoms: _477  and  _480
REMARK  189  A    between atoms: _480  and  _481
REMARK  190  A    between atoms: _486  and  _487
REMARK  191  A    between atoms: _489  and  _491
REMARK  192  A    between atoms: _491  and  _492
REMARK  193  A    between atoms: _491  and  _494
REMARK  194  A    between atoms: _494  and  _495
REMARK  195  A    between atoms: _498  and  _500
REMARK  196  A    between atoms: _500  and  _501
REMARK  197  A    between atoms: _500  and  _503
REMARK  198  A    between atoms: _503  and  _504
REMARK  199  A    between atoms: _507  and  _509
REMARK  200  A    between atoms: _509  and  _510
REMARK  201  A    between atoms: _509  and  _512
REMARK  202  A    between atoms: _512  and  _513
REMARK  203  A    between atoms: _518  and  _520
REMARK  204  A    between atoms: _520  and  _521
REMARK  205  A    between atoms: _524  and  _526
REMARK  206  A    between atoms: _526  and  _527
REMARK  207  A    between atoms: _526  and  _529
REMARK  208  A    between atoms: _532  and  _534
REMARK  209  A    between atoms: _534  and  _535
REMARK  210  A    between atoms: _538  and  _540
REMARK  211  A    between atoms: _540  and  _541
REMARK  212  A    between atoms: _540  and  _543
REMARK  213  A    between atoms: _543  and  _544
REMARK  214  A    between atoms: _547  and  _549
REMARK  215  A    between atoms: _549  and  _550
REMARK  216  A    between atoms: _549  and  _552
REMARK  217  A    between atoms: _552  and  _553
REMARK  218  A    between atoms: _553  and  _554
REMARK  219  A    between atoms: _554  and  _555
REMARK  220  A    between atoms: _564  and  _566
REMARK  221  A    between atoms: _566  and  _567
REMARK  222  A    between atoms: _566  and  _569
REMARK  223  A    between atoms: _569  and  _570
REMARK  224  A    between atoms: _573  and  _575
REMARK  225  A    between atoms: _575  and  _576
REMARK  226  A    between atoms: _579  and  _581
REMARK  227  A    between atoms: _581  and  _582
REMARK  228  A    between atoms: _581  and  _584
REMARK  229  A    between atoms: _586  and  _588
REMARK  230  A    between atoms: _588  and  _589
REMARK  231  A    between atoms: _592  and  _594
REMARK  232  A    between atoms: _594  and  _595
REMARK  233  A    between atoms: _594  and  _597
REMARK  234  A    between atoms: _597  and  _598
REMARK  235  A    between atoms: _598  and  _599
REMARK  236  A    between atoms: _602  and  _604
REMARK  237  A    between atoms: _604  and  _605
REMARK  238  A    between atoms: _604  and  _607
REMARK  239  A    between atoms: _607  and  _608
REMARK                            x       y       z     vdW  Elec       q    Type
REMARK                         _______ _______ _______ _____ _____    ______ ____
ROOT
ATOM      1  O   HOH     1      28.549  33.704   1.985  0.00  0.00    +0.000 OA
ENDROOT
TORSDOF 0
REMARK  Name = ../refined-set-2016/3n86/3n86_pocket.pdb
REMARK  239 active torsions:
REMARK  status: ('A' for Active; 'I' for Inactive)
REMARK    1  A    between atoms: _1  and  _3
REMARK    2  A    between atoms: _3  and  _4
REMARK    3  A    between atoms: _3  and  _6
REMARK    4  A    between atoms: _6  and  _7
REMARK    5  A    between atoms: _12  and  _14
REMARK    6  A    between atoms: _14  and  _15
REMARK    7  A    between atoms: _18  and  _19
REMARK    8  A    between atoms: _24  and  _26
REMARK    9  A    between atoms: _26  and  _27
REMARK   10  A    between atoms: _26  and  _29
REMARK   11  A    between atoms: _29  and  _30
REMARK   12  A    between atoms: _35  and  _37
REMARK   13  A    between atoms: _37  and  _38
REMARK   14  A    between atoms: _37  and  _40
REMARK   15  A    between atoms: _40  and  _41
REMARK   16  A    between atoms: _44  and  _46
REMARK   17  A    between atoms: _46  and  _47
REMARK   18  A    between atoms: _49  and  _51
REMARK   19  A    between atoms: _51  and  _52
REMARK   20  A    between atoms: _51  and  _54
REMARK   21  A    between atoms: _54  and  _55
REMARK   22  A    between atoms: _55  and  _56
REMARK   23  A    between atoms: _56  and  _57
REMARK   24  A    between atoms: _66  and  _68
REMARK   25  A    between atoms: _68  and  _69
REMARK   26  A    between atoms: _68  and  _71
REMARK   27  A    between atoms: _71  and  _72
REMARK   28  A    between atoms: _75  and  _77
REMARK   29  A    between atoms: _77  and  _78
REMARK   30  A    between atoms: _80  and  _82
REMARK   31  A    between atoms: _82  and  _83
REMARK   32  A    between atoms: _82  and  _85
REMARK   33  A    between atoms: _85  and  _86
REMARK   34  A    between atoms: _86  and  _87
REMARK   35  A    between atoms: _87  and  _88
REMARK   36  A    between atoms: _97  and  _99
REMARK   37  A    between atoms: _99  and  _100
REMARK   38  A    between atoms: _99  and  _102
REMARK   39  A    between atoms: _102  and  _103
REMARK   40  A    between atoms: _103  and  _104
REMARK   41  A    between atoms: _104  and  _105
REMARK   42  A    between atoms: _114  and  _116
REMARK   43  A    between atoms: _116  and  _117
REMARK   44  A    between atoms: _116  and  _119
REMARK   45  A    between atoms: _119  and  _120
REMARK   46  A    between atoms: _120  and  _121
REMARK   47  A    between atoms: _125  and  _126
REMARK   48  A    between atoms: _131  and  _133
REMARK   49  A    between atoms: _133  and  _134
REMARK   50  A    between atoms: _133  and  _136
REMARK   51  A    between atoms: _139  and  _141
REMARK   52  A    between atoms: _141  and  _142
REMARK   53  A    between atoms: _141  and  _144
REMARK   54  A    between atoms: _144  and  _145
REMARK   55  A    between atoms: _150  and  _151
REMARK   56  A    between atoms: _153  and  _155
REMARK   57  A    between atoms: _155  and  _156
REMARK   58  A    between atoms: _158  and  _160
REMARK   59  A    between atoms: _160  and  _161
REMARK   60  A    between atoms: _160  and  _163
REMARK   61  A    between atoms: _163  and  _164
REMARK   62  A    between atoms: _164  and  _165
REMARK   63  A    between atoms: _170  and  _172
REMARK   64  A    between atoms: _172  and  _173
REMARK   65  A    between atoms: _172  and  _175
REMARK   66  A    between atoms: _175  and  _176
REMARK   67  A    between atoms: _179  and  _181
REMARK   68  A    between atoms: _181  and  _182
REMARK   69  A    between atoms: _181  and  _184
REMARK   70  A    between atoms: _184  and  _185
REMARK   71  A    between atoms: _188  and  _190
REMARK   72  A    between atoms: _190  and  _191
REMARK   73  A    between atoms: _190  and  _193
REMARK   74  A    between atoms: _193  and  _194
REMARK   75  A    between atoms: _199  and  _201
REMARK   76  A    between atoms: _201  and  _202
REMARK   77  A    between atoms: _205  and  _207
REMARK   78  A    between atoms: _207  and  _208
REMARK   79  A    between atoms: _210  and  _212
REMARK   80  A    between atoms: _212  and  _213
REMARK   81  A    between atoms: _215  and  _217
REMARK   82  A    between atoms: _217  and  _218
REMARK   83  A    between atoms: _217  and  _220
REMARK   84  A    between atoms: _220  and  _221
REMARK   85  A    between atoms: _224  and  _226
REMARK   86  A    between atoms: _226  and  _227
REMARK   87  A    between atoms: _226  and  _229
REMARK   88  A    between atoms: _229  and  _230
REMARK   89  A    between atoms: _233  and  _235
REMARK   90  A    between atoms: _235  and  _236
REMARK   91  A    between atoms: _235  and  _238
REMARK   92  A    between atoms: _238  and  _239
REMARK   93  A    between atoms: _244  and  _246
REMARK   94  A    between atoms: _246  and  _247
REMARK   95  A    between atoms: _246  and  _249
REMARK   96  A    between atoms: _249  and  _250
REMARK   97  A    between atoms: _253  and  _255
REMARK   98  A    between atoms: _255  and  _256
REMARK   99  A    between atoms: _255  and  _258
REMARK  100  A    between atoms: _258  and  _259
REMARK  101  A    between atoms: _259  and  _260
REMARK  102  A    between atoms: _263  and  _265
REMARK  103  A    between atoms: _265  and  _266
REMARK  104  A    between atoms: _265  and  _268
REMARK  105  A    between atoms: _271  and  _273
REMARK  106  A    between atoms: _273  and  _274
REMARK  107  A    between atoms: _273  and  _276
REMARK  108  A    between atoms: _276  and  _277
REMARK  109  A    between atoms: _282  and  _284
REMARK  110  A    between atoms: _284  and  _285
REMARK  111  A    between atoms: _284  and  _287
REMARK  112  A    between atoms: _287  and  _288
REMARK  113  A    between atoms: _291  and  _293
REMARK  114  A    between atoms: _293  and  _294
REMARK  115  A    between atoms: _293  and  _296
REMARK  116  A    between atoms: _296  and  _297
REMARK  117  A    between atoms: _299  and  _301
REMARK  118  A    between atoms: _301  and  _302
REMARK  119  A    between atoms: _301  and  _304
REMARK  120  A    between atoms: _304  and  _305
REMARK  121  A    between atoms: _310  and  _312
REMARK  122  A    between atoms: _312  and  _313
REMARK  123  A    between atoms: _312  and  _315
REMARK  124  A    between atoms: _318  and  _320
REMARK  125  A    between atoms: _320  and  _321
REMARK  126  A    between atoms: _320  and  _323
REMARK  127  A    between atoms: _323  and  _324
REMARK  128  A    between atoms: _329  and  _331
REMARK  129  A    between atoms: _331  and  _332
REMARK  130  A    between atoms: _331  and  _334
REMARK  131  A    between atoms: _334  and  _335
REMARK  132  A    between atoms: _335  and  _336
REMARK  133  A    between atoms: _336  and  _337
REMARK  134  A    between atoms: _346  and  _348
REMARK  135  A    between atoms: _348  and  _349
REMARK  136  A    between atoms: _348  and  _351
REMARK  137  A    between atoms: _351  and  _352
REMARK  138  A    between atoms: _352  and  _353
REMARK  139  A    between atoms: _356  and  _358
REMARK  140  A    between atoms: _358  and  _359
REMARK  141  A    between atoms: _358  and  _361
REMARK  142  A    between atoms: _361  and  _362
REMARK  143  A    between atoms: _368  and  _370
REMARK  144  A    between atoms: _370  and  _371
REMARK  145  A    between atoms: _370  and  _373
REMARK  146  A    between atoms: _373  and  _374
REMARK  147  A    between atoms: _374  and  _375
REMARK  148  A    between atoms: _375  and  _376
REMARK  149  A    between atoms: _385  and  _387
REMARK  150  A    between atoms: _387  and  _388
REMARK  151  A    between atoms: _387  and  _390
REMARK  152  A    between atoms: _390  and  _391
REMARK  153  A    between atoms: _391  and  _392
REMARK  154  A    between atoms: _392  and  _393
REMARK  155  A    between atoms: _402  and  _404
REMARK  156  A    between atoms: _404  and  _405
REMARK  157  A    between atoms: _404  and  _407
REMARK  158  A    between atoms: _407  and  _408
REMARK  159  A    between atoms: _413  and  _415
REMARK  160  A    between atoms: _415  and  _416
REMARK  161  A    between atoms: _415  and  _418
REMARK  162  A    between atoms: _418  and  _419
REMARK  163  A    between atoms: _421  and  _423
REMARK  164  A    between atoms: _423  and  _424
REMARK  165  A    between atoms: _423  and  _426
REMARK  166  A    between atoms: _426  and  _427
REMARK  167  A    between atoms: _430  and  _432
REMARK  168  A    between atoms: _432  and  _433
REMARK  169  A    between atoms: _432  and  _435
REMARK  170  A    between atoms: _435  and  _436
REMARK  171  A    between atoms: _439  and  _441
REMARK  172  A    between atoms: _441  and  _442
REMARK  173  A    between atoms: _441  and  _444
REMARK  174  A    between atoms: _447  and  _449
REMARK  175  A    between atoms: _449  and  _450
REMARK  176  A    between atoms: _452  and  _454
REMARK  177  A    between atoms: _454  and  _455
REMARK  178  A    between atoms: _454  and  _457
REMARK  179  A    between atoms: _457  and  _458
REMARK  180  A    between atoms: _461  and  _463
REMARK  181  A    between atoms: _463  and  _464
REMARK  182  A    between atoms: _466  and  _468
REMARK  183  A    between atoms: _468  and  _469
REMARK  184  A    between atoms: _468  and  _471
REMARK  185  A    between atoms: _471  and  _472
REMARK  186  A    between atoms: _475  and  _477
REMARK  187  A    between atoms: _477  and  _478
REMARK  188  A    between atoms: _477  and  _480
REMARK  189  A    between atoms: _480  and  _481
REMARK  190  A    between atoms: _486  and  _487
REMARK  191  A    between atoms: _489  and  _491
REMARK  192  A    between atoms: _491  and  _492
REMARK  193  A    between atoms: _491  and  _494
REMARK  194  A    between atoms: _494  and  _495
REMARK  195  A    between atoms: _498  and  _500
REMARK  196  A    between atoms: _500  and  _501
REMARK  197  A    between atoms: _500  and  _503
REMARK  198  A    between atoms: _503  and  _504
REMARK  199  A    between atoms: _507  and  _509
REMARK  200  A    between atoms: _509  and  _510
REMARK  201  A    between atoms: _509  and  _512
REMARK  202  A    between atoms: _512  and  _513
REMARK  203  A    between atoms: _518  and  _520
REMARK  204  A    between atoms: _520  and  _521
REMARK  205  A    between atoms: _524  and  _526
REMARK  206  A    between atoms: _526  and  _527
REMARK  207  A    between atoms: _526  and  _529
REMARK  208  A    between atoms: _532  and  _534
REMARK  209  A    between atoms: _534  and  _535
REMARK  210  A    between atoms: _538  and  _540
REMARK  211  A    between atoms: _540  and  _541
REMARK  212  A    between atoms: _540  and  _543
REMARK  213  A    between atoms: _543  and  _544
REMARK  214  A    between atoms: _547  and  _549
REMARK  215  A    between atoms: _549  and  _550
REMARK  216  A    between atoms: _549  and  _552
REMARK  217  A    between atoms: _552  and  _553
REMARK  218  A    between atoms: _553  and  _554
REMARK  219  A    between atoms: _554  and  _555
REMARK  220  A    between atoms: _564  and  _566
REMARK  221  A    between atoms: _566  and  _567
REMARK  222  A    between atoms: _566  and  _569
REMARK  223  A    between atoms: _569  and  _570
REMARK  224  A    between atoms: _573  and  _575
REMARK  225  A    between atoms: _575  and  _576
REMARK  226  A    between atoms: _579  and  _581
REMARK  227  A    between atoms: _581  and  _582
REMARK  228  A    between atoms: _581  and  _584
REMARK  229  A    between atoms: _586  and  _588
REMARK  230  A    between atoms: _588  and  _589
REMARK  231  A    between atoms: _592  and  _594
REMARK  232  A    between atoms: _594  and  _595
REMARK  233  A    between atoms: _594  and  _597
REMARK  234  A    between atoms: _597  and  _598
REMARK  235  A    between atoms: _598  and  _599
REMARK  236  A    between atoms: _602  and  _604
REMARK  237  A    between atoms: _604  and  _605
REMARK  238  A    between atoms: _604  and  _607
REMARK  239  A    between atoms: _607  and  _608
REMARK                            x       y       z     vdW  Elec       q    Type
REMARK                         _______ _______ _______ _____ _____    ______ ____
ROOT
ATOM      1  O   HOH     1      24.300  27.248   6.547  0.00  0.00    +0.000 OA
ENDROOT
TORSDOF 0
REMARK  Name = ../refined-set-2016/3n86/3n86_pocket.pdb
REMARK  239 active torsions:
REMARK  status: ('A' for Active; 'I' for Inactive)
REMARK    1  A    between atoms: _1  and  _3
REMARK    2  A    between atoms: _3  and  _4
REMARK    3  A    between atoms: _3  and  _6
REMARK    4  A    between atoms: _6  and  _7
REMARK    5  A    between atoms: _12  and  _14
REMARK    6  A    between atoms: _14  and  _15
REMARK    7  A    between atoms: _18  and  _19
REMARK    8  A    between atoms: _24  and  _26
REMARK    9  A    between atoms: _26  and  _27
REMARK   10  A    between atoms: _26  and  _29
REMARK   11  A    between atoms: _29  and  _30
REMARK   12  A    between atoms: _35  and  _37
REMARK   13  A    between atoms: _37  and  _38
REMARK   14  A    between atoms: _37  and  _40
REMARK   15  A    between atoms: _40  and  _41
REMARK   16  A    between atoms: _44  and  _46
REMARK   17  A    between atoms: _46  and  _47
REMARK   18  A    between atoms: _49  and  _51
REMARK   19  A    between atoms: _51  and  _52
REMARK   20  A    between atoms: _51  and  _54
REMARK   21  A    between atoms: _54  and  _55
REMARK   22  A    between atoms: _55  and  _56
REMARK   23  A    between atoms: _56  and  _57
REMARK   24  A    between atoms: _66  and  _68
REMARK   25  A    between atoms: _68  and  _69
REMARK   26  A    between atoms: _68  and  _71
REMARK   27  A    between atoms: _71  and  _72
REMARK   28  A    between atoms: _75  and  _77
REMARK   29  A    between atoms: _77  and  _78
REMARK   30  A    between atoms: _80  and  _82
REMARK   31  A    between atoms: _82  and  _83
REMARK   32  A    between atoms: _82  and  _85
REMARK   33  A    between atoms: _85  and  _86
REMARK   34  A    between atoms: _86  and  _87
REMARK   35  A    between atoms: _87  and  _88
REMARK   36  A    between atoms: _97  and  _99
REMARK   37  A    between atoms: _99  and  _100
REMARK   38  A    between atoms: _99  and  _102
REMARK   39  A    between atoms: _102  and  _103
REMARK   40  A    between atoms: _103  and  _104
REMARK   41  A    between atoms: _104  and  _105
REMARK   42  A    between atoms: _114  and  _116
REMARK   43  A    between atoms: _116  and  _117
REMARK   44  A    between atoms: _116  and  _119
REMARK   45  A    between atoms: _119  and  _120
REMARK   46  A    between atoms: _120  and  _121
REMARK   47  A    between atoms: _125  and  _126
REMARK   48  A    between atoms: _131  and  _133
REMARK   49  A    between atoms: _133  and  _134
REMARK   50  A    between atoms: _133  and  _136
REMARK   51  A    between atoms: _139  and  _141
REMARK   52  A    between atoms: _141  and  _142
REMARK   53  A    between atoms: _141  and  _144
REMARK   54  A    between atoms: _144  and  _145
REMARK   55  A    between atoms: _150  and  _151
REMARK   56  A    between atoms: _153  and  _155
REMARK   57  A    between atoms: _155  and  _156
REMARK   58  A    between atoms: _158  and  _160
REMARK   59  A    between atoms: _160  and  _161
REMARK   60  A    between atoms: _160  and  _163
REMARK   61  A    between atoms: _163  and  _164
REMARK   62  A    between atoms: _164  and  _165
REMARK   63  A    between atoms: _170  and  _172
REMARK   64  A    between atoms: _172  and  _173
REMARK   65  A    between atoms: _172  and  _175
REMARK   66  A    between atoms: _175  and  _176
REMARK   67  A    between atoms: _179  and  _181
REMARK   68  A    between atoms: _181  and  _182
REMARK   69  A    between atoms: _181  and  _184
REMARK   70  A    between atoms: _184  and  _185
REMARK   71  A    between atoms: _188  and  _190
REMARK   72  A    between atoms: _190  and  _191
REMARK   73  A    between atoms: _190  and  _193
REMARK   74  A    between atoms: _193  and  _194
REMARK   75  A    between atoms: _199  and  _201
REMARK   76  A    between atoms: _201  and  _202
REMARK   77  A    between atoms: _205  and  _207
REMARK   78  A    between atoms: _207  and  _208
REMARK   79  A    between atoms: _210  and  _212
REMARK   80  A    between atoms: _212  and  _213
REMARK   81  A    between atoms: _215  and  _217
REMARK   82  A    between atoms: _217  and  _218
REMARK   83  A    between atoms: _217  and  _220
REMARK   84  A    between atoms: _220  and  _221
REMARK   85  A    between atoms: _224  and  _226
REMARK   86  A    between atoms: _226  and  _227
REMARK   87  A    between atoms: _226  and  _229
REMARK   88  A    between atoms: _229  and  _230
REMARK   89  A    between atoms: _233  and  _235
REMARK   90  A    between atoms: _235  and  _236
REMARK   91  A    between atoms: _235  and  _238
REMARK   92  A    between atoms: _238  and  _239
REMARK   93  A    between atoms: _244  and  _246
REMARK   94  A    between atoms: _246  and  _247
REMARK   95  A    between atoms: _246  and  _249
REMARK   96  A    between atoms: _249  and  _250
REMARK   97  A    between atoms: _253  and  _255
REMARK   98  A    between atoms: _255  and  _256
REMARK   99  A    between atoms: _255  and  _258
REMARK  100  A    between atoms: _258  and  _259
REMARK  101  A    between atoms: _259  and  _260
REMARK  102  A    between atoms: _263  and  _265
REMARK  103  A    between atoms: _265  and  _266
REMARK  104  A    between atoms: _265  and  _268
REMARK  105  A    between atoms: _271  and  _273
REMARK  106  A    between atoms: _273  and  _274
REMARK  107  A    between atoms: _273  and  _276
REMARK  108  A    between atoms: _276  and  _277
REMARK  109  A    between atoms: _282  and  _284
REMARK  110  A    between atoms: _284  and  _285
REMARK  111  A    between atoms: _284  and  _287
REMARK  112  A    between atoms: _287  and  _288
REMARK  113  A    between atoms: _291  and  _293
REMARK  114  A    between atoms: _293  and  _294
REMARK  115  A    between atoms: _293  and  _296
REMARK  116  A    between atoms: _296  and  _297
REMARK  117  A    between atoms: _299  and  _301
REMARK  118  A    between atoms: _301  and  _302
REMARK  119  A    between atoms: _301  and  _304
REMARK  120  A    between atoms: _304  and  _305
REMARK  121  A    between atoms: _310  and  _312
REMARK  122  A    between atoms: _312  and  _313
REMARK  123  A    between atoms: _312  and  _315
REMARK  124  A    between atoms: _318  and  _320
REMARK  125  A    between atoms: _320  and  _321
REMARK  126  A    between atoms: _320  and  _323
REMARK  127  A    between atoms: _323  and  _324
REMARK  128  A    between atoms: _329  and  _331
REMARK  129  A    between atoms: _331  and  _332
REMARK  130  A    between atoms: _331  and  _334
REMARK  131  A    between atoms: _334  and  _335
REMARK  132  A    between atoms: _335  and  _336
REMARK  133  A    between atoms: _336  and  _337
REMARK  134  A    between atoms: _346  and  _348
REMARK  135  A    between atoms: _348  and  _349
REMARK  136  A    between atoms: _348  and  _351
REMARK  137  A    between atoms: _351  and  _352
REMARK  138  A    between atoms: _352  and  _353
REMARK  139  A    between atoms: _356  and  _358
REMARK  140  A    between atoms: _358  and  _359
REMARK  141  A    between atoms: _358  and  _361
REMARK  142  A    between atoms: _361  and  _362
REMARK  143  A    between atoms: _368  and  _370
REMARK  144  A    between atoms: _370  and  _371
REMARK  145  A    between atoms: _370  and  _373
REMARK  146  A    between atoms: _373  and  _374
REMARK  147  A    between atoms: _374  and  _375
REMARK  148  A    between atoms: _375  and  _376
REMARK  149  A    between atoms: _385  and  _387
REMARK  150  A    between atoms: _387  and  _388
REMARK  151  A    between atoms: _387  and  _390
REMARK  152  A    between atoms: _390  and  _391
REMARK  153  A    between atoms: _391  and  _392
REMARK  154  A    between atoms: _392  and  _393
REMARK  155  A    between atoms: _402  and  _404
REMARK  156  A    between atoms: _404  and  _405
REMARK  157  A    between atoms: _404  and  _407
REMARK  158  A    between atoms: _407  and  _408
REMARK  159  A    between atoms: _413  and  _415
REMARK  160  A    between atoms: _415  and  _416
REMARK  161  A    between atoms: _415  and  _418
REMARK  162  A    between atoms: _418  and  _419
REMARK  163  A    between atoms: _421  and  _423
REMARK  164  A    between atoms: _423  and  _424
REMARK  165  A    between atoms: _423  and  _426
REMARK  166  A    between atoms: _426  and  _427
REMARK  167  A    between atoms: _430  and  _432
REMARK  168  A    between atoms: _432  and  _433
REMARK  169  A    between atoms: _432  and  _435
REMARK  170  A    between atoms: _435  and  _436
REMARK  171  A    between atoms: _439  and  _441
REMARK  172  A    between atoms: _441  and  _442
REMARK  173  A    between atoms: _441  and  _444
REMARK  174  A    between atoms: _447  and  _449
REMARK  175  A    between atoms: _449  and  _450
REMARK  176  A    between atoms: _452  and  _454
REMARK  177  A    between atoms: _454  and  _455
REMARK  178  A    between atoms: _454  and  _457
REMARK  179  A    between atoms: _457  and  _458
REMARK  180  A    between atoms: _461  and  _463
REMARK  181  A    between atoms: _463  and  _464
REMARK  182  A    between atoms: _466  and  _468
REMARK  183  A    between atoms: _468  and  _469
REMARK  184  A    between atoms: _468  and  _471
REMARK  185  A    between atoms: _471  and  _472
REMARK  186  A    between atoms: _475  and  _477
REMARK  187  A    between atoms: _477  and  _478
REMARK  188  A    between atoms: _477  and  _480
REMARK  189  A    between atoms: _480  and  _481
REMARK  190  A    between atoms: _486  and  _487
REMARK  191  A    between atoms: _489  and  _491
REMARK  192  A    between atoms: _491  and  _492
REMARK  193  A    between atoms: _491  and  _494
REMARK  194  A    between atoms: _494  and  _495
REMARK  195  A    between atoms: _498  and  _500
REMARK  196  A    between atoms: _500  and  _501
REMARK  197  A    between atoms: _500  and  _503
REMARK  198  A    between atoms: _503  and  _504
REMARK  199  A    between atoms: _507  and  _509
REMARK  200  A    between atoms: _509  and  _510
REMARK  201  A    between atoms: _509  and  _512
REMARK  202  A    between atoms: _512  and  _513
REMARK  203  A    between atoms: _518  and  _520
REMARK  204  A    between atoms: _520  and  _521
REMARK  205  A    between atoms: _524  and  _526
REMARK  206  A    between atoms: _526  and  _527
REMARK  207  A    between atoms: _526  and  _529
REMARK  208  A    between atoms: _532  and  _534
REMARK  209  A    between atoms: _534  and  _535
REMARK  210  A    between atoms: _538  and  _540
REMARK  211  A    between atoms: _540  and  _541
REMARK  212  A    between atoms: _540  and  _543
REMARK  213  A    between atoms: _543  and  _544
REMARK  214  A    between atoms: _547  and  _549
REMARK  215  A    between atoms: _549  and  _550
REMARK  216  A    between atoms: _549  and  _552
REMARK  217  A    between atoms: _552  and  _553
REMARK  218  A    between atoms: _553  and  _554
REMARK  219  A    between atoms: _554  and  _555
REMARK  220  A    between atoms: _564  and  _566
REMARK  221  A    between atoms: _566  and  _567
REMARK  222  A    between atoms: _566  and  _569
REMARK  223  A    between atoms: _569  and  _570
REMARK  224  A    between atoms: _573  and  _575
REMARK  225  A    between atoms: _575  and  _576
REMARK  226  A    between atoms: _579  and  _581
REMARK  227  A    between atoms: _581  and  _582
REMARK  228  A    between atoms: _581  and  _584
REMARK  229  A    between atoms: _586  and  _588
REMARK  230  A    between atoms: _588  and  _589
REMARK  231  A    between atoms: _592  and  _594
REMARK  232  A    between atoms: _594  and  _595
REMARK  233  A    between atoms: _594  and  _597
REMARK  234  A    between atoms: _597  and  _598
REMARK  235  A    between atoms: _598  and  _599
REMARK  236  A    between atoms: _602  and  _604
REMARK  237  A    between atoms: _604  and  _605
REMARK  238  A    between atoms: _604  and  _607
REMARK  239  A    between atoms: _607  and  _608
REMARK                            x       y       z     vdW  Elec       q    Type
REMARK                         _______ _______ _______ _____ _____    ______ ____
ROOT
ATOM      1  O   HOH     1      33.772  25.279   9.639  0.00  0.00    +0.000 OA
ENDROOT
TORSDOF 0
REMARK  Name = ../refined-set-2016/3n86/3n86_pocket.pdb
REMARK  239 active torsions:
REMARK  status: ('A' for Active; 'I' for Inactive)
REMARK    1  A    between atoms: _1  and  _3
REMARK    2  A    between atoms: _3  and  _4
REMARK    3  A    between atoms: _3  and  _6
REMARK    4  A    between atoms: _6  and  _7
REMARK    5  A    between atoms: _12  and  _14
REMARK    6  A    between atoms: _14  and  _15
REMARK    7  A    between atoms: _18  and  _19
REMARK    8  A    between atoms: _24  and  _26
REMARK    9  A    between atoms: _26  and  _27
REMARK   10  A    between atoms: _26  and  _29
REMARK   11  A    between atoms: _29  and  _30
REMARK   12  A    between atoms: _35  and  _37
REMARK   13  A    between atoms: _37  and  _38
REMARK   14  A    between atoms: _37  and  _40
REMARK   15  A    between atoms: _40  and  _41
REMARK   16  A    between atoms: _44  and  _46
REMARK   17  A    between atoms: _46  and  _47
REMARK   18  A    between atoms: _49  and  _51
REMARK   19  A    between atoms: _51  and  _52
REMARK   20  A    between atoms: _51  and  _54
REMARK   21  A    between atoms: _54  and  _55
REMARK   22  A    between atoms: _55  and  _56
REMARK   23  A    between atoms: _56  and  _57
REMARK   24  A    between atoms: _66  and  _68
REMARK   25  A    between atoms: _68  and  _69
REMARK   26  A    between atoms: _68  and  _71
REMARK   27  A    between atoms: _71  and  _72
REMARK   28  A    between atoms: _75  and  _77
REMARK   29  A    between atoms: _77  and  _78
REMARK   30  A    between atoms: _80  and  _82
REMARK   31  A    between atoms: _82  and  _83
REMARK   32  A    between atoms: _82  and  _85
REMARK   33  A    between atoms: _85  and  _86
REMARK   34  A    between atoms: _86  and  _87
REMARK   35  A    between atoms: _87  and  _88
REMARK   36  A    between atoms: _97  and  _99
REMARK   37  A    between atoms: _99  and  _100
REMARK   38  A    between atoms: _99  and  _102
REMARK   39  A    between atoms: _102  and  _103
REMARK   40  A    between atoms: _103  and  _104
REMARK   41  A    between atoms: _104  and  _105
REMARK   42  A    between atoms: _114  and  _116
REMARK   43  A    between atoms: _116  and  _117
REMARK   44  A    between atoms: _116  and  _119
REMARK   45  A    between atoms: _119  and  _120
REMARK   46  A    between atoms: _120  and  _121
REMARK   47  A    between atoms: _125  and  _126
REMARK   48  A    between atoms: _131  and  _133
REMARK   49  A    between atoms: _133  and  _134
REMARK   50  A    between atoms: _133  and  _136
REMARK   51  A    between atoms: _139  and  _141
REMARK   52  A    between atoms: _141  and  _142
REMARK   53  A    between atoms: _141  and  _144
REMARK   54  A    between atoms: _144  and  _145
REMARK   55  A    between atoms: _150  and  _151
REMARK   56  A    between atoms: _153  and  _155
REMARK   57  A    between atoms: _155  and  _156
REMARK   58  A    between atoms: _158  and  _160
REMARK   59  A    between atoms: _160  and  _161
REMARK   60  A    between atoms: _160  and  _163
REMARK   61  A    between atoms: _163  and  _164
REMARK   62  A    between atoms: _164  and  _165
REMARK   63  A    between atoms: _170  and  _172
REMARK   64  A    between atoms: _172  and  _173
REMARK   65  A    between atoms: _172  and  _175
REMARK   66  A    between atoms: _175  and  _176
REMARK   67  A    between atoms: _179  and  _181
REMARK   68  A    between atoms: _181  and  _182
REMARK   69  A    between atoms: _181  and  _184
REMARK   70  A    between atoms: _184  and  _185
REMARK   71  A    between atoms: _188  and  _190
REMARK   72  A    between atoms: _190  and  _191
REMARK   73  A    between atoms: _190  and  _193
REMARK   74  A    between atoms: _193  and  _194
REMARK   75  A    between atoms: _199  and  _201
REMARK   76  A    between atoms: _201  and  _202
REMARK   77  A    between atoms: _205  and  _207
REMARK   78  A    between atoms: _207  and  _208
REMARK   79  A    between atoms: _210  and  _212
REMARK   80  A    between atoms: _212  and  _213
REMARK   81  A    between atoms: _215  and  _217
REMARK   82  A    between atoms: _217  and  _218
REMARK   83  A    between atoms: _217  and  _220
REMARK   84  A    between atoms: _220  and  _221
REMARK   85  A    between atoms: _224  and  _226
REMARK   86  A    between atoms: _226  and  _227
REMARK   87  A    between atoms: _226  and  _229
REMARK   88  A    between atoms: _229  and  _230
REMARK   89  A    between atoms: _233  and  _235
REMARK   90  A    between atoms: _235  and  _236
REMARK   91  A    between atoms: _235  and  _238
REMARK   92  A    between atoms: _238  and  _239
REMARK   93  A    between atoms: _244  and  _246
REMARK   94  A    between atoms: _246  and  _247
REMARK   95  A    between atoms: _246  and  _249
REMARK   96  A    between atoms: _249  and  _250
REMARK   97  A    between atoms: _253  and  _255
REMARK   98  A    between atoms: _255  and  _256
REMARK   99  A    between atoms: _255  and  _258
REMARK  100  A    between atoms: _258  and  _259
REMARK  101  A    between atoms: _259  and  _260
REMARK  102  A    between atoms: _263  and  _265
REMARK  103  A    between atoms: _265  and  _266
REMARK  104  A    between atoms: _265  and  _268
REMARK  105  A    between atoms: _271  and  _273
REMARK  106  A    between atoms: _273  and  _274
REMARK  107  A    between atoms: _273  and  _276
REMARK  108  A    between atoms: _276  and  _277
REMARK  109  A    between atoms: _282  and  _284
REMARK  110  A    between atoms: _284  and  _285
REMARK  111  A    between atoms: _284  and  _287
REMARK  112  A    between atoms: _287  and  _288
REMARK  113  A    between atoms: _291  and  _293
REMARK  114  A    between atoms: _293  and  _294
REMARK  115  A    between atoms: _293  and  _296
REMARK  116  A    between atoms: _296  and  _297
REMARK  117  A    between atoms: _299  and  _301
REMARK  118  A    between atoms: _301  and  _302
REMARK  119  A    between atoms: _301  and  _304
REMARK  120  A    between atoms: _304  and  _305
REMARK  121  A    between atoms: _310  and  _312
REMARK  122  A    between atoms: _312  and  _313
REMARK  123  A    between atoms: _312  and  _315
REMARK  124  A    between atoms: _318  and  _320
REMARK  125  A    between atoms: _320  and  _321
REMARK  126  A    between atoms: _320  and  _323
REMARK  127  A    between atoms: _323  and  _324
REMARK  128  A    between atoms: _329  and  _331
REMARK  129  A    between atoms: _331  and  _332
REMARK  130  A    between atoms: _331  and  _334
REMARK  131  A    between atoms: _334  and  _335
REMARK  132  A    between atoms: _335  and  _336
REMARK  133  A    between atoms: _336  and  _337
REMARK  134  A    between atoms: _346  and  _348
REMARK  135  A    between atoms: _348  and  _349
REMARK  136  A    between atoms: _348  and  _351
REMARK  137  A    between atoms: _351  and  _352
REMARK  138  A    between atoms: _352  and  _353
REMARK  139  A    between atoms: _356  and  _358
REMARK  140  A    between atoms: _358  and  _359
REMARK  141  A    between atoms: _358  and  _361
REMARK  142  A    between atoms: _361  and  _362
REMARK  143  A    between atoms: _368  and  _370
REMARK  144  A    between atoms: _370  and  _371
REMARK  145  A    between atoms: _370  and  _373
REMARK  146  A    between atoms: _373  and  _374
REMARK  147  A    between atoms: _374  and  _375
REMARK  148  A    between atoms: _375  and  _376
REMARK  149  A    between atoms: _385  and  _387
REMARK  150  A    between atoms: _387  and  _388
REMARK  151  A    between atoms: _387  and  _390
REMARK  152  A    between atoms: _390  and  _391
REMARK  153  A    between atoms: _391  and  _392
REMARK  154  A    between atoms: _392  and  _393
REMARK  155  A    between atoms: _402  and  _404
REMARK  156  A    between atoms: _404  and  _405
REMARK  157  A    between atoms: _404  and  _407
REMARK  158  A    between atoms: _407  and  _408
REMARK  159  A    between atoms: _413  and  _415
REMARK  160  A    between atoms: _415  and  _416
REMARK  161  A    between atoms: _415  and  _418
REMARK  162  A    between atoms: _418  and  _419
REMARK  163  A    between atoms: _421  and  _423
REMARK  164  A    between atoms: _423  and  _424
REMARK  165  A    between atoms: _423  and  _426
REMARK  166  A    between atoms: _426  and  _427
REMARK  167  A    between atoms: _430  and  _432
REMARK  168  A    between atoms: _432  and  _433
REMARK  169  A    between atoms: _432  and  _435
REMARK  170  A    between atoms: _435  and  _436
REMARK  171  A    between atoms: _439  and  _441
REMARK  172  A    between atoms: _441  and  _442
REMARK  173  A    between atoms: _441  and  _444
REMARK  174  A    between atoms: _447  and  _449
REMARK  175  A    between atoms: _449  and  _450
REMARK  176  A    between atoms: _452  and  _454
REMARK  177  A    between atoms: _454  and  _455
REMARK  178  A    between atoms: _454  and  _457
REMARK  179  A    between atoms: _457  and  _458
REMARK  180  A    between atoms: _461  and  _463
REMARK  181  A    between atoms: _463  and  _464
REMARK  182  A    between atoms: _466  and  _468
REMARK  183  A    between atoms: _468  and  _469
REMARK  184  A    between atoms: _468  and  _471
REMARK  185  A    between atoms: _471  and  _472
REMARK  186  A    between atoms: _475  and  _477
REMARK  187  A    between atoms: _477  and  _478
REMARK  188  A    between atoms: _477  and  _480
REMARK  189  A    between atoms: _480  and  _481
REMARK  190  A    between atoms: _486  and  _487
REMARK  191  A    between atoms: _489  and  _491
REMARK  192  A    between atoms: _491  and  _492
REMARK  193  A    between atoms: _491  and  _494
REMARK  194  A    between atoms: _494  and  _495
REMARK  195  A    between atoms: _498  and  _500
REMARK  196  A    between atoms: _500  and  _501
REMARK  197  A    between atoms: _500  and  _503
REMARK  198  A    between atoms: _503  and  _504
REMARK  199  A    between atoms: _507  and  _509
REMARK  200  A    between atoms: _509  and  _510
REMARK  201  A    between atoms: _509  and  _512
REMARK  202  A    between atoms: _512  and  _513
REMARK  203  A    between atoms: _518  and  _520
REMARK  204  A    between atoms: _520  and  _521
REMARK  205  A    between atoms: _524  and  _526
REMARK  206  A    between atoms: _526  and  _527
REMARK  207  A    between atoms: _526  and  _529
REMARK  208  A    between atoms: _532  and  _534
REMARK  209  A    between atoms: _534  and  _535
REMARK  210  A    between atoms: _538  and  _540
REMARK  211  A    between atoms: _540  and  _541
REMARK  212  A    between atoms: _540  and  _543
REMARK  213  A    between atoms: _543  and  _544
REMARK  214  A    between atoms: _547  and  _549
REMARK  215  A    between atoms: _549  and  _550
REMARK  216  A    between atoms: _549  and  _552
REMARK  217  A    between atoms: _552  and  _553
REMARK  218  A    between atoms: _553  and  _554
REMARK  219  A    between atoms: _554  and  _555
REMARK  220  A    between atoms: _564  and  _566
REMARK  221  A    between atoms: _566  and  _567
REMARK  222  A    between atoms: _566  and  _569
REMARK  223  A    between atoms: _569  and  _570
REMARK  224  A    between atoms: _573  and  _575
REMARK  225  A    between atoms: _575  and  _576
REMARK  226  A    between atoms: _579  and  _581
REMARK  227  A    between atoms: _581  and  _582
REMARK  228  A    between atoms: _581  and  _584
REMARK  229  A    between atoms: _586  and  _588
REMARK  230  A    between atoms: _588  and  _589
REMARK  231  A    between atoms: _592  and  _594
REMARK  232  A    between atoms: _594  and  _595
REMARK  233  A    between atoms: _594  and  _597
REMARK  234  A    between atoms: _597  and  _598
REMARK  235  A    between atoms: _598  and  _599
REMARK  236  A    between atoms: _602  and  _604
REMARK  237  A    between atoms: _604  and  _605
REMARK  238  A    between atoms: _604  and  _607
REMARK  239  A    between atoms: _607  and  _608
REMARK                            x       y       z     vdW  Elec       q    Type
REMARK                         _______ _______ _______ _____ _____    ______ ____
ROOT
ATOM      1  O   HOH     1      31.737  16.561   5.334  0.00  0.00    +0.000 OA
ENDROOT
TORSDOF 0
REMARK  Name = ../refined-set-2016/3n86/3n86_pocket.pdb
REMARK  239 active torsions:
REMARK  status: ('A' for Active; 'I' for Inactive)
REMARK    1  A    between atoms: _1  and  _3
REMARK    2  A    between atoms: _3  and  _4
REMARK    3  A    between atoms: _3  and  _6
REMARK    4  A    between atoms: _6  and  _7
REMARK    5  A    between atoms: _12  and  _14
REMARK    6  A    between atoms: _14  and  _15
REMARK    7  A    between atoms: _18  and  _19
REMARK    8  A    between atoms: _24  and  _26
REMARK    9  A    between atoms: _26  and  _27
REMARK   10  A    between atoms: _26  and  _29
REMARK   11  A    between atoms: _29  and  _30
REMARK   12  A    between atoms: _35  and  _37
REMARK   13  A    between atoms: _37  and  _38
REMARK   14  A    between atoms: _37  and  _40
REMARK   15  A    between atoms: _40  and  _41
REMARK   16  A    between atoms: _44  and  _46
REMARK   17  A    between atoms: _46  and  _47
REMARK   18  A    between atoms: _49  and  _51
REMARK   19  A    between atoms: _51  and  _52
REMARK   20  A    between atoms: _51  and  _54
REMARK   21  A    between atoms: _54  and  _55
REMARK   22  A    between atoms: _55  and  _56
REMARK   23  A    between atoms: _56  and  _57
REMARK   24  A    between atoms: _66  and  _68
REMARK   25  A    between atoms: _68  and  _69
REMARK   26  A    between atoms: _68  and  _71
REMARK   27  A    between atoms: _71  and  _72
REMARK   28  A    between atoms: _75  and  _77
REMARK   29  A    between atoms: _77  and  _78
REMARK   30  A    between atoms: _80  and  _82
REMARK   31  A    between atoms: _82  and  _83
REMARK   32  A    between atoms: _82  and  _85
REMARK   33  A    between atoms: _85  and  _86
REMARK   34  A    between atoms: _86  and  _87
REMARK   35  A    between atoms: _87  and  _88
REMARK   36  A    between atoms: _97  and  _99
REMARK   37  A    between atoms: _99  and  _100
REMARK   38  A    between atoms: _99  and  _102
REMARK   39  A    between atoms: _102  and  _103
REMARK   40  A    between atoms: _103  and  _104
REMARK   41  A    between atoms: _104  and  _105
REMARK   42  A    between atoms: _114  and  _116
REMARK   43  A    between atoms: _116  and  _117
REMARK   44  A    between atoms: _116  and  _119
REMARK   45  A    between atoms: _119  and  _120
REMARK   46  A    between atoms: _120  and  _121
REMARK   47  A    between atoms: _125  and  _126
REMARK   48  A    between atoms: _131  and  _133
REMARK   49  A    between atoms: _133  and  _134
REMARK   50  A    between atoms: _133  and  _136
REMARK   51  A    between atoms: _139  and  _141
REMARK   52  A    between atoms: _141  and  _142
REMARK   53  A    between atoms: _141  and  _144
REMARK   54  A    between atoms: _144  and  _145
REMARK   55  A    between atoms: _150  and  _151
REMARK   56  A    between atoms: _153  and  _155
REMARK   57  A    between atoms: _155  and  _156
REMARK   58  A    between atoms: _158  and  _160
REMARK   59  A    between atoms: _160  and  _161
REMARK   60  A    between atoms: _160  and  _163
REMARK   61  A    between atoms: _163  and  _164
REMARK   62  A    between atoms: _164  and  _165
REMARK   63  A    between atoms: _170  and  _172
REMARK   64  A    between atoms: _172  and  _173
REMARK   65  A    between atoms: _172  and  _175
REMARK   66  A    between atoms: _175  and  _176
REMARK   67  A    between atoms: _179  and  _181
REMARK   68  A    between atoms: _181  and  _182
REMARK   69  A    between atoms: _181  and  _184
REMARK   70  A    between atoms: _184  and  _185
REMARK   71  A    between atoms: _188  and  _190
REMARK   72  A    between atoms: _190  and  _191
REMARK   73  A    between atoms: _190  and  _193
REMARK   74  A    between atoms: _193  and  _194
REMARK   75  A    between atoms: _199  and  _201
REMARK   76  A    between atoms: _201  and  _202
REMARK   77  A    between atoms: _205  and  _207
REMARK   78  A    between atoms: _207  and  _208
REMARK   79  A    between atoms: _210  and  _212
REMARK   80  A    between atoms: _212  and  _213
REMARK   81  A    between atoms: _215  and  _217
REMARK   82  A    between atoms: _217  and  _218
REMARK   83  A    between atoms: _217  and  _220
REMARK   84  A    between atoms: _220  and  _221
REMARK   85  A    between atoms: _224  and  _226
REMARK   86  A    between atoms: _226  and  _227
REMARK   87  A    between atoms: _226  and  _229
REMARK   88  A    between atoms: _229  and  _230
REMARK   89  A    between atoms: _233  and  _235
REMARK   90  A    between atoms: _235  and  _236
REMARK   91  A    between atoms: _235  and  _238
REMARK   92  A    between atoms: _238  and  _239
REMARK   93  A    between atoms: _244  and  _246
REMARK   94  A    between atoms: _246  and  _247
REMARK   95  A    between atoms: _246  and  _249
REMARK   96  A    between atoms: _249  and  _250
REMARK   97  A    between atoms: _253  and  _255
REMARK   98  A    between atoms: _255  and  _256
REMARK   99  A    between atoms: _255  and  _258
REMARK  100  A    between atoms: _258  and  _259
REMARK  101  A    between atoms: _259  and  _260
REMARK  102  A    between atoms: _263  and  _265
REMARK  103  A    between atoms: _265  and  _266
REMARK  104  A    between atoms: _265  and  _268
REMARK  105  A    between atoms: _271  and  _273
REMARK  106  A    between atoms: _273  and  _274
REMARK  107  A    between atoms: _273  and  _276
REMARK  108  A    between atoms: _276  and  _277
REMARK  109  A    between atoms: _282  and  _284
REMARK  110  A    between atoms: _284  and  _285
REMARK  111  A    between atoms: _284  and  _287
REMARK  112  A    between atoms: _287  and  _288
REMARK  113  A    between atoms: _291  and  _293
REMARK  114  A    between atoms: _293  and  _294
REMARK  115  A    between atoms: _293  and  _296
REMARK  116  A    between atoms: _296  and  _297
REMARK  117  A    between atoms: _299  and  _301
REMARK  118  A    between atoms: _301  and  _302
REMARK  119  A    between atoms: _301  and  _304
REMARK  120  A    between atoms: _304  and  _305
REMARK  121  A    between atoms: _310  and  _312
REMARK  122  A    between atoms: _312  and  _313
REMARK  123  A    between atoms: _312  and  _315
REMARK  124  A    between atoms: _318  and  _320
REMARK  125  A    between atoms: _320  and  _321
REMARK  126  A    between atoms: _320  and  _323
REMARK  127  A    between atoms: _323  and  _324
REMARK  128  A    between atoms: _329  and  _331
REMARK  129  A    between atoms: _331  and  _332
REMARK  130  A    between atoms: _331  and  _334
REMARK  131  A    between atoms: _334  and  _335
REMARK  132  A    between atoms: _335  and  _336
REMARK  133  A    between atoms: _336  and  _337
REMARK  134  A    between atoms: _346  and  _348
REMARK  135  A    between atoms: _348  and  _349
REMARK  136  A    between atoms: _348  and  _351
REMARK  137  A    between atoms: _351  and  _352
REMARK  138  A    between atoms: _352  and  _353
REMARK  139  A    between atoms: _356  and  _358
REMARK  140  A    between atoms: _358  and  _359
REMARK  141  A    between atoms: _358  and  _361
REMARK  142  A    between atoms: _361  and  _362
REMARK  143  A    between atoms: _368  and  _370
REMARK  144  A    between atoms: _370  and  _371
REMARK  145  A    between atoms: _370  and  _373
REMARK  146  A    between atoms: _373  and  _374
REMARK  147  A    between atoms: _374  and  _375
REMARK  148  A    between atoms: _375  and  _376
REMARK  149  A    between atoms: _385  and  _387
REMARK  150  A    between atoms: _387  and  _388
REMARK  151  A    between atoms: _387  and  _390
REMARK  152  A    between atoms: _390  and  _391
REMARK  153  A    between atoms: _391  and  _392
REMARK  154  A    between atoms: _392  and  _393
REMARK  155  A    between atoms: _402  and  _404
REMARK  156  A    between atoms: _404  and  _405
REMARK  157  A    between atoms: _404  and  _407
REMARK  158  A    between atoms: _407  and  _408
REMARK  159  A    between atoms: _413  and  _415
REMARK  160  A    between atoms: _415  and  _416
REMARK  161  A    between atoms: _415  and  _418
REMARK  162  A    between atoms: _418  and  _419
REMARK  163  A    between atoms: _421  and  _423
REMARK  164  A    between atoms: _423  and  _424
REMARK  165  A    between atoms: _423  and  _426
REMARK  166  A    between atoms: _426  and  _427
REMARK  167  A    between atoms: _430  and  _432
REMARK  168  A    between atoms: _432  and  _433
REMARK  169  A    between atoms: _432  and  _435
REMARK  170  A    between atoms: _435  and  _436
REMARK  171  A    between atoms: _439  and  _441
REMARK  172  A    between atoms: _441  and  _442
REMARK  173  A    between atoms: _441  and  _444
REMARK  174  A    between atoms: _447  and  _449
REMARK  175  A    between atoms: _449  and  _450
REMARK  176  A    between atoms: _452  and  _454
REMARK  177  A    between atoms: _454  and  _455
REMARK  178  A    between atoms: _454  and  _457
REMARK  179  A    between atoms: _457  and  _458
REMARK  180  A    between atoms: _461  and  _463
REMARK  181  A    between atoms: _463  and  _464
REMARK  182  A    between atoms: _466  and  _468
REMARK  183  A    between atoms: _468  and  _469
REMARK  184  A    between atoms: _468  and  _471
REMARK  185  A    between atoms: _471  and  _472
REMARK  186  A    between atoms: _475  and  _477
REMARK  187  A    between atoms: _477  and  _478
REMARK  188  A    between atoms: _477  and  _480
REMARK  189  A    between atoms: _480  and  _481
REMARK  190  A    between atoms: _486  and  _487
REMARK  191  A    between atoms: _489  and  _491
REMARK  192  A    between atoms: _491  and  _492
REMARK  193  A    between atoms: _491  and  _494
REMARK  194  A    between atoms: _494  and  _495
REMARK  195  A    between atoms: _498  and  _500
REMARK  196  A    between atoms: _500  and  _501
REMARK  197  A    between atoms: _500  and  _503
REMARK  198  A    between atoms: _503  and  _504
REMARK  199  A    between atoms: _507  and  _509
REMARK  200  A    between atoms: _509  and  _510
REMARK  201  A    between atoms: _509  and  _512
REMARK  202  A    between atoms: _512  and  _513
REMARK  203  A    between atoms: _518  and  _520
REMARK  204  A    between atoms: _520  and  _521
REMARK  205  A    between atoms: _524  and  _526
REMARK  206  A    between atoms: _526  and  _527
REMARK  207  A    between atoms: _526  and  _529
REMARK  208  A    between atoms: _532  and  _534
REMARK  209  A    between atoms: _534  and  _535
REMARK  210  A    between atoms: _538  and  _540
REMARK  211  A    between atoms: _540  and  _541
REMARK  212  A    between atoms: _540  and  _543
REMARK  213  A    between atoms: _543  and  _544
REMARK  214  A    between atoms: _547  and  _549
REMARK  215  A    between atoms: _549  and  _550
REMARK  216  A    between atoms: _549  and  _552
REMARK  217  A    between atoms: _552  and  _553
REMARK  218  A    between atoms: _553  and  _554
REMARK  219  A    between atoms: _554  and  _555
REMARK  220  A    between atoms: _564  and  _566
REMARK  221  A    between atoms: _566  and  _567
REMARK  222  A    between atoms: _566  and  _569
REMARK  223  A    between atoms: _569  and  _570
REMARK  224  A    between atoms: _573  and  _575
REMARK  225  A    between atoms: _575  and  _576
REMARK  226  A    between atoms: _579  and  _581
REMARK  227  A    between atoms: _581  and  _582
REMARK  228  A    between atoms: _581  and  _584
REMARK  229  A    between atoms: _586  and  _588
REMARK  230  A    between atoms: _588  and  _589
REMARK  231  A    between atoms: _592  and  _594
REMARK  232  A    between atoms: _594  and  _595
REMARK  233  A    between atoms: _594  and  _597
REMARK  234  A    between atoms: _597  and  _598
REMARK  235  A    between atoms: _598  and  _599
REMARK  236  A    between atoms: _602  and  _604
REMARK  237  A    between atoms: _604  and  _605
REMARK  238  A    between atoms: _604  and  _607
REMARK  239  A    between atoms: _607  and  _608
REMARK                            x       y       z     vdW  Elec       q    Type
REMARK                         _______ _______ _______ _____ _____    ______ ____
ROOT
ATOM      1  O   HOH     1      20.698  24.106   0.376  0.00  0.00    +0.000 OA
ENDROOT
TORSDOF 0
REMARK  Name = ../refined-set-2016/3n86/3n86_pocket.pdb
REMARK  239 active torsions:
REMARK  status: ('A' for Active; 'I' for Inactive)
REMARK    1  A    between atoms: _1  and  _3
REMARK    2  A    between atoms: _3  and  _4
REMARK    3  A    between atoms: _3  and  _6
REMARK    4  A    between atoms: _6  and  _7
REMARK    5  A    between atoms: _12  and  _14
REMARK    6  A    between atoms: _14  and  _15
REMARK    7  A    between atoms: _18  and  _19
REMARK    8  A    between atoms: _24  and  _26
REMARK    9  A    between atoms: _26  and  _27
REMARK   10  A    between atoms: _26  and  _29
REMARK   11  A    between atoms: _29  and  _30
REMARK   12  A    between atoms: _35  and  _37
REMARK   13  A    between atoms: _37  and  _38
REMARK   14  A    between atoms: _37  and  _40
REMARK   15  A    between atoms: _40  and  _41
REMARK   16  A    between atoms: _44  and  _46
REMARK   17  A    between atoms: _46  and  _47
REMARK   18  A    between atoms: _49  and  _51
REMARK   19  A    between atoms: _51  and  _52
REMARK   20  A    between atoms: _51  and  _54
REMARK   21  A    between atoms: _54  and  _55
REMARK   22  A    between atoms: _55  and  _56
REMARK   23  A    between atoms: _56  and  _57
REMARK   24  A    between atoms: _66  and  _68
REMARK   25  A    between atoms: _68  and  _69
REMARK   26  A    between atoms: _68  and  _71
REMARK   27  A    between atoms: _71  and  _72
REMARK   28  A    between atoms: _75  and  _77
REMARK   29  A    between atoms: _77  and  _78
REMARK   30  A    between atoms: _80  and  _82
REMARK   31  A    between atoms: _82  and  _83
REMARK   32  A    between atoms: _82  and  _85
REMARK   33  A    between atoms: _85  and  _86
REMARK   34  A    between atoms: _86  and  _87
REMARK   35  A    between atoms: _87  and  _88
REMARK   36  A    between atoms: _97  and  _99
REMARK   37  A    between atoms: _99  and  _100
REMARK   38  A    between atoms: _99  and  _102
REMARK   39  A    between atoms: _102  and  _103
REMARK   40  A    between atoms: _103  and  _104
REMARK   41  A    between atoms: _104  and  _105
REMARK   42  A    between atoms: _114  and  _116
REMARK   43  A    between atoms: _116  and  _117
REMARK   44  A    between atoms: _116  and  _119
REMARK   45  A    between atoms: _119  and  _120
REMARK   46  A    between atoms: _120  and  _121
REMARK   47  A    between atoms: _125  and  _126
REMARK   48  A    between atoms: _131  and  _133
REMARK   49  A    between atoms: _133  and  _134
REMARK   50  A    between atoms: _133  and  _136
REMARK   51  A    between atoms: _139  and  _141
REMARK   52  A    between atoms: _141  and  _142
REMARK   53  A    between atoms: _141  and  _144
REMARK   54  A    between atoms: _144  and  _145
REMARK   55  A    between atoms: _150  and  _151
REMARK   56  A    between atoms: _153  and  _155
REMARK   57  A    between atoms: _155  and  _156
REMARK   58  A    between atoms: _158  and  _160
REMARK   59  A    between atoms: _160  and  _161
REMARK   60  A    between atoms: _160  and  _163
REMARK   61  A    between atoms: _163  and  _164
REMARK   62  A    between atoms: _164  and  _165
REMARK   63  A    between atoms: _170  and  _172
REMARK   64  A    between atoms: _172  and  _173
REMARK   65  A    between atoms: _172  and  _175
REMARK   66  A    between atoms: _175  and  _176
REMARK   67  A    between atoms: _179  and  _181
REMARK   68  A    between atoms: _181  and  _182
REMARK   69  A    between atoms: _181  and  _184
REMARK   70  A    between atoms: _184  and  _185
REMARK   71  A    between atoms: _188  and  _190
REMARK   72  A    between atoms: _190  and  _191
REMARK   73  A    between atoms: _190  and  _193
REMARK   74  A    between atoms: _193  and  _194
REMARK   75  A    between atoms: _199  and  _201
REMARK   76  A    between atoms: _201  and  _202
REMARK   77  A    between atoms: _205  and  _207
REMARK   78  A    between atoms: _207  and  _208
REMARK   79  A    between atoms: _210  and  _212
REMARK   80  A    between atoms: _212  and  _213
REMARK   81  A    between atoms: _215  and  _217
REMARK   82  A    between atoms: _217  and  _218
REMARK   83  A    between atoms: _217  and  _220
REMARK   84  A    between atoms: _220  and  _221
REMARK   85  A    between atoms: _224  and  _226
REMARK   86  A    between atoms: _226  and  _227
REMARK   87  A    between atoms: _226  and  _229
REMARK   88  A    between atoms: _229  and  _230
REMARK   89  A    between atoms: _233  and  _235
REMARK   90  A    between atoms: _235  and  _236
REMARK   91  A    between atoms: _235  and  _238
REMARK   92  A    between atoms: _238  and  _239
REMARK   93  A    between atoms: _244  and  _246
REMARK   94  A    between atoms: _246  and  _247
REMARK   95  A    between atoms: _246  and  _249
REMARK   96  A    between atoms: _249  and  _250
REMARK   97  A    between atoms: _253  and  _255
REMARK   98  A    between atoms: _255  and  _256
REMARK   99  A    between atoms: _255  and  _258
REMARK  100  A    between atoms: _258  and  _259
REMARK  101  A    between atoms: _259  and  _260
REMARK  102  A    between atoms: _263  and  _265
REMARK  103  A    between atoms: _265  and  _266
REMARK  104  A    between atoms: _265  and  _268
REMARK  105  A    between atoms: _271  and  _273
REMARK  106  A    between atoms: _273  and  _274
REMARK  107  A    between atoms: _273  and  _276
REMARK  108  A    between atoms: _276  and  _277
REMARK  109  A    between atoms: _282  and  _284
REMARK  110  A    between atoms: _284  and  _285
REMARK  111  A    between atoms: _284  and  _287
REMARK  112  A    between atoms: _287  and  _288
REMARK  113  A    between atoms: _291  and  _293
REMARK  114  A    between atoms: _293  and  _294
REMARK  115  A    between atoms: _293  and  _296
REMARK  116  A    between atoms: _296  and  _297
REMARK  117  A    between atoms: _299  and  _301
REMARK  118  A    between atoms: _301  and  _302
REMARK  119  A    between atoms: _301  and  _304
REMARK  120  A    between atoms: _304  and  _305
REMARK  121  A    between atoms: _310  and  _312
REMARK  122  A    between atoms: _312  and  _313
REMARK  123  A    between atoms: _312  and  _315
REMARK  124  A    between atoms: _318  and  _320
REMARK  125  A    between atoms: _320  and  _321
REMARK  126  A    between atoms: _320  and  _323
REMARK  127  A    between atoms: _323  and  _324
REMARK  128  A    between atoms: _329  and  _331
REMARK  129  A    between atoms: _331  and  _332
REMARK  130  A    between atoms: _331  and  _334
REMARK  131  A    between atoms: _334  and  _335
REMARK  132  A    between atoms: _335  and  _336
REMARK  133  A    between atoms: _336  and  _337
REMARK  134  A    between atoms: _346  and  _348
REMARK  135  A    between atoms: _348  and  _349
REMARK  136  A    between atoms: _348  and  _351
REMARK  137  A    between atoms: _351  and  _352
REMARK  138  A    between atoms: _352  and  _353
REMARK  139  A    between atoms: _356  and  _358
REMARK  140  A    between atoms: _358  and  _359
REMARK  141  A    between atoms: _358  and  _361
REMARK  142  A    between atoms: _361  and  _362
REMARK  143  A    between atoms: _368  and  _370
REMARK  144  A    between atoms: _370  and  _371
REMARK  145  A    between atoms: _370  and  _373
REMARK  146  A    between atoms: _373  and  _374
REMARK  147  A    between atoms: _374  and  _375
REMARK  148  A    between atoms: _375  and  _376
REMARK  149  A    between atoms: _385  and  _387
REMARK  150  A    between atoms: _387  and  _388
REMARK  151  A    between atoms: _387  and  _390
REMARK  152  A    between atoms: _390  and  _391
REMARK  153  A    between atoms: _391  and  _392
REMARK  154  A    between atoms: _392  and  _393
REMARK  155  A    between atoms: _402  and  _404
REMARK  156  A    between atoms: _404  and  _405
REMARK  157  A    between atoms: _404  and  _407
REMARK  158  A    between atoms: _407  and  _408
REMARK  159  A    between atoms: _413  and  _415
REMARK  160  A    between atoms: _415  and  _416
REMARK  161  A    between atoms: _415  and  _418
REMARK  162  A    between atoms: _418  and  _419
REMARK  163  A    between atoms: _421  and  _423
REMARK  164  A    between atoms: _423  and  _424
REMARK  165  A    between atoms: _423  and  _426
REMARK  166  A    between atoms: _426  and  _427
REMARK  167  A    between atoms: _430  and  _432
REMARK  168  A    between atoms: _432  and  _433
REMARK  169  A    between atoms: _432  and  _435
REMARK  170  A    between atoms: _435  and  _436
REMARK  171  A    between atoms: _439  and  _441
REMARK  172  A    between atoms: _441  and  _442
REMARK  173  A    between atoms: _441  and  _444
REMARK  174  A    between atoms: _447  and  _449
REMARK  175  A    between atoms: _449  and  _450
REMARK  176  A    between atoms: _452  and  _454
REMARK  177  A    between atoms: _454  and  _455
REMARK  178  A    between atoms: _454  and  _457
REMARK  179  A    between atoms: _457  and  _458
REMARK  180  A    between atoms: _461  and  _463
REMARK  181  A    between atoms: _463  and  _464
REMARK  182  A    between atoms: _466  and  _468
REMARK  183  A    between atoms: _468  and  _469
REMARK  184  A    between atoms: _468  and  _471
REMARK  185  A    between atoms: _471  and  _472
REMARK  186  A    between atoms: _475  and  _477
REMARK  187  A    between atoms: _477  and  _478
REMARK  188  A    between atoms: _477  and  _480
REMARK  189  A    between atoms: _480  and  _481
REMARK  190  A    between atoms: _486  and  _487
REMARK  191  A    between atoms: _489  and  _491
REMARK  192  A    between atoms: _491  and  _492
REMARK  193  A    between atoms: _491  and  _494
REMARK  194  A    between atoms: _494  and  _495
REMARK  195  A    between atoms: _498  and  _500
REMARK  196  A    between atoms: _500  and  _501
REMARK  197  A    between atoms: _500  and  _503
REMARK  198  A    between atoms: _503  and  _504
REMARK  199  A    between atoms: _507  and  _509
REMARK  200  A    between atoms: _509  and  _510
REMARK  201  A    between atoms: _509  and  _512
REMARK  202  A    between atoms: _512  and  _513
REMARK  203  A    between atoms: _518  and  _520
REMARK  204  A    between atoms: _520  and  _521
REMARK  205  A    between atoms: _524  and  _526
REMARK  206  A    between atoms: _526  and  _527
REMARK  207  A    between atoms: _526  and  _529
REMARK  208  A    between atoms: _532  and  _534
REMARK  209  A    between atoms: _534  and  _535
REMARK  210  A    between atoms: _538  and  _540
REMARK  211  A    between atoms: _540  and  _541
REMARK  212  A    between atoms: _540  and  _543
REMARK  213  A    between atoms: _543  and  _544
REMARK  214  A    between atoms: _547  and  _549
REMARK  215  A    between atoms: _549  and  _550
REMARK  216  A    between atoms: _549  and  _552
REMARK  217  A    between atoms: _552  and  _553
REMARK  218  A    between atoms: _553  and  _554
REMARK  219  A    between atoms: _554  and  _555
REMARK  220  A    between atoms: _564  and  _566
REMARK  221  A    between atoms: _566  and  _567
REMARK  222  A    between atoms: _566  and  _569
REMARK  223  A    between atoms: _569  and  _570
REMARK  224  A    between atoms: _573  and  _575
REMARK  225  A    between atoms: _575  and  _576
REMARK  226  A    between atoms: _579  and  _581
REMARK  227  A    between atoms: _581  and  _582
REMARK  228  A    between atoms: _581  and  _584
REMARK  229  A    between atoms: _586  and  _588
REMARK  230  A    between atoms: _588  and  _589
REMARK  231  A    between atoms: _592  and  _594
REMARK  232  A    between atoms: _594  and  _595
REMARK  233  A    between atoms: _594  and  _597
REMARK  234  A    between atoms: _597  and  _598
REMARK  235  A    between atoms: _598  and  _599
REMARK  236  A    between atoms: _602  and  _604
REMARK  237  A    between atoms: _604  and  _605
REMARK  238  A    between atoms: _604  and  _607
REMARK  239  A    between atoms: _607  and  _608
REMARK                            x       y       z     vdW  Elec       q    Type
REMARK                         _______ _______ _______ _____ _____    ______ ____
ROOT
ATOM      1  O   HOH     1      24.067  28.229  -2.853  0.00  0.00    +0.000 OA
ENDROOT
TORSDOF 0
REMARK  Name = ../refined-set-2016/3n86/3n86_pocket.pdb
REMARK  239 active torsions:
REMARK  status: ('A' for Active; 'I' for Inactive)
REMARK    1  A    between atoms: _1  and  _3
REMARK    2  A    between atoms: _3  and  _4
REMARK    3  A    between atoms: _3  and  _6
REMARK    4  A    between atoms: _6  and  _7
REMARK    5  A    between atoms: _12  and  _14
REMARK    6  A    between atoms: _14  and  _15
REMARK    7  A    between atoms: _18  and  _19
REMARK    8  A    between atoms: _24  and  _26
REMARK    9  A    between atoms: _26  and  _27
REMARK   10  A    between atoms: _26  and  _29
REMARK   11  A    between atoms: _29  and  _30
REMARK   12  A    between atoms: _35  and  _37
REMARK   13  A    between atoms: _37  and  _38
REMARK   14  A    between atoms: _37  and  _40
REMARK   15  A    between atoms: _40  and  _41
REMARK   16  A    between atoms: _44  and  _46
REMARK   17  A    between atoms: _46  and  _47
REMARK   18  A    between atoms: _49  and  _51
REMARK   19  A    between atoms: _51  and  _52
REMARK   20  A    between atoms: _51  and  _54
REMARK   21  A    between atoms: _54  and  _55
REMARK   22  A    between atoms: _55  and  _56
REMARK   23  A    between atoms: _56  and  _57
REMARK   24  A    between atoms: _66  and  _68
REMARK   25  A    between atoms: _68  and  _69
REMARK   26  A    between atoms: _68  and  _71
REMARK   27  A    between atoms: _71  and  _72
REMARK   28  A    between atoms: _75  and  _77
REMARK   29  A    between atoms: _77  and  _78
REMARK   30  A    between atoms: _80  and  _82
REMARK   31  A    between atoms: _82  and  _83
REMARK   32  A    between atoms: _82  and  _85
REMARK   33  A    between atoms: _85  and  _86
REMARK   34  A    between atoms: _86  and  _87
REMARK   35  A    between atoms: _87  and  _88
REMARK   36  A    between atoms: _97  and  _99
REMARK   37  A    between atoms: _99  and  _100
REMARK   38  A    between atoms: _99  and  _102
REMARK   39  A    between atoms: _102  and  _103
REMARK   40  A    between atoms: _103  and  _104
REMARK   41  A    between atoms: _104  and  _105
REMARK   42  A    between atoms: _114  and  _116
REMARK   43  A    between atoms: _116  and  _117
REMARK   44  A    between atoms: _116  and  _119
REMARK   45  A    between atoms: _119  and  _120
REMARK   46  A    between atoms: _120  and  _121
REMARK   47  A    between atoms: _125  and  _126
REMARK   48  A    between atoms: _131  and  _133
REMARK   49  A    between atoms: _133  and  _134
REMARK   50  A    between atoms: _133  and  _136
REMARK   51  A    between atoms: _139  and  _141
REMARK   52  A    between atoms: _141  and  _142
REMARK   53  A    between atoms: _141  and  _144
REMARK   54  A    between atoms: _144  and  _145
REMARK   55  A    between atoms: _150  and  _151
REMARK   56  A    between atoms: _153  and  _155
REMARK   57  A    between atoms: _155  and  _156
REMARK   58  A    between atoms: _158  and  _160
REMARK   59  A    between atoms: _160  and  _161
REMARK   60  A    between atoms: _160  and  _163
REMARK   61  A    between atoms: _163  and  _164
REMARK   62  A    between atoms: _164  and  _165
REMARK   63  A    between atoms: _170  and  _172
REMARK   64  A    between atoms: _172  and  _173
REMARK   65  A    between atoms: _172  and  _175
REMARK   66  A    between atoms: _175  and  _176
REMARK   67  A    between atoms: _179  and  _181
REMARK   68  A    between atoms: _181  and  _182
REMARK   69  A    between atoms: _181  and  _184
REMARK   70  A    between atoms: _184  and  _185
REMARK   71  A    between atoms: _188  and  _190
REMARK   72  A    between atoms: _190  and  _191
REMARK   73  A    between atoms: _190  and  _193
REMARK   74  A    between atoms: _193  and  _194
REMARK   75  A    between atoms: _199  and  _201
REMARK   76  A    between atoms: _201  and  _202
REMARK   77  A    between atoms: _205  and  _207
REMARK   78  A    between atoms: _207  and  _208
REMARK   79  A    between atoms: _210  and  _212
REMARK   80  A    between atoms: _212  and  _213
REMARK   81  A    between atoms: _215  and  _217
REMARK   82  A    between atoms: _217  and  _218
REMARK   83  A    between atoms: _217  and  _220
REMARK   84  A    between atoms: _220  and  _221
REMARK   85  A    between atoms: _224  and  _226
REMARK   86  A    between atoms: _226  and  _227
REMARK   87  A    between atoms: _226  and  _229
REMARK   88  A    between atoms: _229  and  _230
REMARK   89  A    between atoms: _233  and  _235
REMARK   90  A    between atoms: _235  and  _236
REMARK   91  A    between atoms: _235  and  _238
REMARK   92  A    between atoms: _238  and  _239
REMARK   93  A    between atoms: _244  and  _246
REMARK   94  A    between atoms: _246  and  _247
REMARK   95  A    between atoms: _246  and  _249
REMARK   96  A    between atoms: _249  and  _250
REMARK   97  A    between atoms: _253  and  _255
REMARK   98  A    between atoms: _255  and  _256
REMARK   99  A    between atoms: _255  and  _258
REMARK  100  A    between atoms: _258  and  _259
REMARK  101  A    between atoms: _259  and  _260
REMARK  102  A    between atoms: _263  and  _265
REMARK  103  A    between atoms: _265  and  _266
REMARK  104  A    between atoms: _265  and  _268
REMARK  105  A    between atoms: _271  and  _273
REMARK  106  A    between atoms: _273  and  _274
REMARK  107  A    between atoms: _273  and  _276
REMARK  108  A    between atoms: _276  and  _277
REMARK  109  A    between atoms: _282  and  _284
REMARK  110  A    between atoms: _284  and  _285
REMARK  111  A    between atoms: _284  and  _287
REMARK  112  A    between atoms: _287  and  _288
REMARK  113  A    between atoms: _291  and  _293
REMARK  114  A    between atoms: _293  and  _294
REMARK  115  A    between atoms: _293  and  _296
REMARK  116  A    between atoms: _296  and  _297
REMARK  117  A    between atoms: _299  and  _301
REMARK  118  A    between atoms: _301  and  _302
REMARK  119  A    between atoms: _301  and  _304
REMARK  120  A    between atoms: _304  and  _305
REMARK  121  A    between atoms: _310  and  _312
REMARK  122  A    between atoms: _312  and  _313
REMARK  123  A    between atoms: _312  and  _315
REMARK  124  A    between atoms: _318  and  _320
REMARK  125  A    between atoms: _320  and  _321
REMARK  126  A    between atoms: _320  and  _323
REMARK  127  A    between atoms: _323  and  _324
REMARK  128  A    between atoms: _329  and  _331
REMARK  129  A    between atoms: _331  and  _332
REMARK  130  A    between atoms: _331  and  _334
REMARK  131  A    between atoms: _334  and  _335
REMARK  132  A    between atoms: _335  and  _336
REMARK  133  A    between atoms: _336  and  _337
REMARK  134  A    between atoms: _346  and  _348
REMARK  135  A    between atoms: _348  and  _349
REMARK  136  A    between atoms: _348  and  _351
REMARK  137  A    between atoms: _351  and  _352
REMARK  138  A    between atoms: _352  and  _353
REMARK  139  A    between atoms: _356  and  _358
REMARK  140  A    between atoms: _358  and  _359
REMARK  141  A    between atoms: _358  and  _361
REMARK  142  A    between atoms: _361  and  _362
REMARK  143  A    between atoms: _368  and  _370
REMARK  144  A    between atoms: _370  and  _371
REMARK  145  A    between atoms: _370  and  _373
REMARK  146  A    between atoms: _373  and  _374
REMARK  147  A    between atoms: _374  and  _375
REMARK  148  A    between atoms: _375  and  _376
REMARK  149  A    between atoms: _385  and  _387
REMARK  150  A    between atoms: _387  and  _388
REMARK  151  A    between atoms: _387  and  _390
REMARK  152  A    between atoms: _390  and  _391
REMARK  153  A    between atoms: _391  and  _392
REMARK  154  A    between atoms: _392  and  _393
REMARK  155  A    between atoms: _402  and  _404
REMARK  156  A    between atoms: _404  and  _405
REMARK  157  A    between atoms: _404  and  _407
REMARK  158  A    between atoms: _407  and  _408
REMARK  159  A    between atoms: _413  and  _415
REMARK  160  A    between atoms: _415  and  _416
REMARK  161  A    between atoms: _415  and  _418
REMARK  162  A    between atoms: _418  and  _419
REMARK  163  A    between atoms: _421  and  _423
REMARK  164  A    between atoms: _423  and  _424
REMARK  165  A    between atoms: _423  and  _426
REMARK  166  A    between atoms: _426  and  _427
REMARK  167  A    between atoms: _430  and  _432
REMARK  168  A    between atoms: _432  and  _433
REMARK  169  A    between atoms: _432  and  _435
REMARK  170  A    between atoms: _435  and  _436
REMARK  171  A    between atoms: _439  and  _441
REMARK  172  A    between atoms: _441  and  _442
REMARK  173  A    between atoms: _441  and  _444
REMARK  174  A    between atoms: _447  and  _449
REMARK  175  A    between atoms: _449  and  _450
REMARK  176  A    between atoms: _452  and  _454
REMARK  177  A    between atoms: _454  and  _455
REMARK  178  A    between atoms: _454  and  _457
REMARK  179  A    between atoms: _457  and  _458
REMARK  180  A    between atoms: _461  and  _463
REMARK  181  A    between atoms: _463  and  _464
REMARK  182  A    between atoms: _466  and  _468
REMARK  183  A    between atoms: _468  and  _469
REMARK  184  A    between atoms: _468  and  _471
REMARK  185  A    between atoms: _471  and  _472
REMARK  186  A    between atoms: _475  and  _477
REMARK  187  A    between atoms: _477  and  _478
REMARK  188  A    between atoms: _477  and  _480
REMARK  189  A    between atoms: _480  and  _481
REMARK  190  A    between atoms: _486  and  _487
REMARK  191  A    between atoms: _489  and  _491
REMARK  192  A    between atoms: _491  and  _492
REMARK  193  A    between atoms: _491  and  _494
REMARK  194  A    between atoms: _494  and  _495
REMARK  195  A    between atoms: _498  and  _500
REMARK  196  A    between atoms: _500  and  _501
REMARK  197  A    between atoms: _500  and  _503
REMARK  198  A    between atoms: _503  and  _504
REMARK  199  A    between atoms: _507  and  _509
REMARK  200  A    between atoms: _509  and  _510
REMARK  201  A    between atoms: _509  and  _512
REMARK  202  A    between atoms: _512  and  _513
REMARK  203  A    between atoms: _518  and  _520
REMARK  204  A    between atoms: _520  and  _521
REMARK  205  A    between atoms: _524  and  _526
REMARK  206  A    between atoms: _526  and  _527
REMARK  207  A    between atoms: _526  and  _529
REMARK  208  A    between atoms: _532  and  _534
REMARK  209  A    between atoms: _534  and  _535
REMARK  210  A    between atoms: _538  and  _540
REMARK  211  A    between atoms: _540  and  _541
REMARK  212  A    between atoms: _540  and  _543
REMARK  213  A    between atoms: _543  and  _544
REMARK  214  A    between atoms: _547  and  _549
REMARK  215  A    between atoms: _549  and  _550
REMARK  216  A    between atoms: _549  and  _552
REMARK  217  A    between atoms: _552  and  _553
REMARK  218  A    between atoms: _553  and  _554
REMARK  219  A    between atoms: _554  and  _555
REMARK  220  A    between atoms: _564  and  _566
REMARK  221  A    between atoms: _566  and  _567
REMARK  222  A    between atoms: _566  and  _569
REMARK  223  A    between atoms: _569  and  _570
REMARK  224  A    between atoms: _573  and  _575
REMARK  225  A    between atoms: _575  and  _576
REMARK  226  A    between atoms: _579  and  _581
REMARK  227  A    between atoms: _581  and  _582
REMARK  228  A    between atoms: _581  and  _584
REMARK  229  A    between atoms: _586  and  _588
REMARK  230  A    between atoms: _588  and  _589
REMARK  231  A    between atoms: _592  and  _594
REMARK  232  A    between atoms: _594  and  _595
REMARK  233  A    between atoms: _594  and  _597
REMARK  234  A    between atoms: _597  and  _598
REMARK  235  A    between atoms: _598  and  _599
REMARK  236  A    between atoms: _602  and  _604
REMARK  237  A    between atoms: _604  and  _605
REMARK  238  A    between atoms: _604  and  _607
REMARK  239  A    between atoms: _607  and  _608
REMARK                            x       y       z     vdW  Elec       q    Type
REMARK                         _______ _______ _______ _____ _____    ______ ____
ROOT
ATOM      1  O   HOH     1      25.748  31.620  -8.756  0.00  0.00    +0.000 OA
ENDROOT
TORSDOF 0
REMARK  Name = ../refined-set-2016/3n86/3n86_pocket.pdb
REMARK  239 active torsions:
REMARK  status: ('A' for Active; 'I' for Inactive)
REMARK    1  A    between atoms: _1  and  _3
REMARK    2  A    between atoms: _3  and  _4
REMARK    3  A    between atoms: _3  and  _6
REMARK    4  A    between atoms: _6  and  _7
REMARK    5  A    between atoms: _12  and  _14
REMARK    6  A    between atoms: _14  and  _15
REMARK    7  A    between atoms: _18  and  _19
REMARK    8  A    between atoms: _24  and  _26
REMARK    9  A    between atoms: _26  and  _27
REMARK   10  A    between atoms: _26  and  _29
REMARK   11  A    between atoms: _29  and  _30
REMARK   12  A    between atoms: _35  and  _37
REMARK   13  A    between atoms: _37  and  _38
REMARK   14  A    between atoms: _37  and  _40
REMARK   15  A    between atoms: _40  and  _41
REMARK   16  A    between atoms: _44  and  _46
REMARK   17  A    between atoms: _46  and  _47
REMARK   18  A    between atoms: _49  and  _51
REMARK   19  A    between atoms: _51  and  _52
REMARK   20  A    between atoms: _51  and  _54
REMARK   21  A    between atoms: _54  and  _55
REMARK   22  A    between atoms: _55  and  _56
REMARK   23  A    between atoms: _56  and  _57
REMARK   24  A    between atoms: _66  and  _68
REMARK   25  A    between atoms: _68  and  _69
REMARK   26  A    between atoms: _68  and  _71
REMARK   27  A    between atoms: _71  and  _72
REMARK   28  A    between atoms: _75  and  _77
REMARK   29  A    between atoms: _77  and  _78
REMARK   30  A    between atoms: _80  and  _82
REMARK   31  A    between atoms: _82  and  _83
REMARK   32  A    between atoms: _82  and  _85
REMARK   33  A    between atoms: _85  and  _86
REMARK   34  A    between atoms: _86  and  _87
REMARK   35  A    between atoms: _87  and  _88
REMARK   36  A    between atoms: _97  and  _99
REMARK   37  A    between atoms: _99  and  _100
REMARK   38  A    between atoms: _99  and  _102
REMARK   39  A    between atoms: _102  and  _103
REMARK   40  A    between atoms: _103  and  _104
REMARK   41  A    between atoms: _104  and  _105
REMARK   42  A    between atoms: _114  and  _116
REMARK   43  A    between atoms: _116  and  _117
REMARK   44  A    between atoms: _116  and  _119
REMARK   45  A    between atoms: _119  and  _120
REMARK   46  A    between atoms: _120  and  _121
REMARK   47  A    between atoms: _125  and  _126
REMARK   48  A    between atoms: _131  and  _133
REMARK   49  A    between atoms: _133  and  _134
REMARK   50  A    between atoms: _133  and  _136
REMARK   51  A    between atoms: _139  and  _141
REMARK   52  A    between atoms: _141  and  _142
REMARK   53  A    between atoms: _141  and  _144
REMARK   54  A    between atoms: _144  and  _145
REMARK   55  A    between atoms: _150  and  _151
REMARK   56  A    between atoms: _153  and  _155
REMARK   57  A    between atoms: _155  and  _156
REMARK   58  A    between atoms: _158  and  _160
REMARK   59  A    between atoms: _160  and  _161
REMARK   60  A    between atoms: _160  and  _163
REMARK   61  A    between atoms: _163  and  _164
REMARK   62  A    between atoms: _164  and  _165
REMARK   63  A    between atoms: _170  and  _172
REMARK   64  A    between atoms: _172  and  _173
REMARK   65  A    between atoms: _172  and  _175
REMARK   66  A    between atoms: _175  and  _176
REMARK   67  A    between atoms: _179  and  _181
REMARK   68  A    between atoms: _181  and  _182
REMARK   69  A    between atoms: _181  and  _184
REMARK   70  A    between atoms: _184  and  _185
REMARK   71  A    between atoms: _188  and  _190
REMARK   72  A    between atoms: _190  and  _191
REMARK   73  A    between atoms: _190  and  _193
REMARK   74  A    between atoms: _193  and  _194
REMARK   75  A    between atoms: _199  and  _201
REMARK   76  A    between atoms: _201  and  _202
REMARK   77  A    between atoms: _205  and  _207
REMARK   78  A    between atoms: _207  and  _208
REMARK   79  A    between atoms: _210  and  _212
REMARK   80  A    between atoms: _212  and  _213
REMARK   81  A    between atoms: _215  and  _217
REMARK   82  A    between atoms: _217  and  _218
REMARK   83  A    between atoms: _217  and  _220
REMARK   84  A    between atoms: _220  and  _221
REMARK   85  A    between atoms: _224  and  _226
REMARK   86  A    between atoms: _226  and  _227
REMARK   87  A    between atoms: _226  and  _229
REMARK   88  A    between atoms: _229  and  _230
REMARK   89  A    between atoms: _233  and  _235
REMARK   90  A    between atoms: _235  and  _236
REMARK   91  A    between atoms: _235  and  _238
REMARK   92  A    between atoms: _238  and  _239
REMARK   93  A    between atoms: _244  and  _246
REMARK   94  A    between atoms: _246  and  _247
REMARK   95  A    between atoms: _246  and  _249
REMARK   96  A    between atoms: _249  and  _250
REMARK   97  A    between atoms: _253  and  _255
REMARK   98  A    between atoms: _255  and  _256
REMARK   99  A    between atoms: _255  and  _258
REMARK  100  A    between atoms: _258  and  _259
REMARK  101  A    between atoms: _259  and  _260
REMARK  102  A    between atoms: _263  and  _265
REMARK  103  A    between atoms: _265  and  _266
REMARK  104  A    between atoms: _265  and  _268
REMARK  105  A    between atoms: _271  and  _273
REMARK  106  A    between atoms: _273  and  _274
REMARK  107  A    between atoms: _273  and  _276
REMARK  108  A    between atoms: _276  and  _277
REMARK  109  A    between atoms: _282  and  _284
REMARK  110  A    between atoms: _284  and  _285
REMARK  111  A    between atoms: _284  and  _287
REMARK  112  A    between atoms: _287  and  _288
REMARK  113  A    between atoms: _291  and  _293
REMARK  114  A    between atoms: _293  and  _294
REMARK  115  A    between atoms: _293  and  _296
REMARK  116  A    between atoms: _296  and  _297
REMARK  117  A    between atoms: _299  and  _301
REMARK  118  A    between atoms: _301  and  _302
REMARK  119  A    between atoms: _301  and  _304
REMARK  120  A    between atoms: _304  and  _305
REMARK  121  A    between atoms: _310  and  _312
REMARK  122  A    between atoms: _312  and  _313
REMARK  123  A    between atoms: _312  and  _315
REMARK  124  A    between atoms: _318  and  _320
REMARK  125  A    between atoms: _320  and  _321
REMARK  126  A    between atoms: _320  and  _323
REMARK  127  A    between atoms: _323  and  _324
REMARK  128  A    between atoms: _329  and  _331
REMARK  129  A    between atoms: _331  and  _332
REMARK  130  A    between atoms: _331  and  _334
REMARK  131  A    between atoms: _334  and  _335
REMARK  132  A    between atoms: _335  and  _336
REMARK  133  A    between atoms: _336  and  _337
REMARK  134  A    between atoms: _346  and  _348
REMARK  135  A    between atoms: _348  and  _349
REMARK  136  A    between atoms: _348  and  _351
REMARK  137  A    between atoms: _351  and  _352
REMARK  138  A    between atoms: _352  and  _353
REMARK  139  A    between atoms: _356  and  _358
REMARK  140  A    between atoms: _358  and  _359
REMARK  141  A    between atoms: _358  and  _361
REMARK  142  A    between atoms: _361  and  _362
REMARK  143  A    between atoms: _368  and  _370
REMARK  144  A    between atoms: _370  and  _371
REMARK  145  A    between atoms: _370  and  _373
REMARK  146  A    between atoms: _373  and  _374
REMARK  147  A    between atoms: _374  and  _375
REMARK  148  A    between atoms: _375  and  _376
REMARK  149  A    between atoms: _385  and  _387
REMARK  150  A    between atoms: _387  and  _388
REMARK  151  A    between atoms: _387  and  _390
REMARK  152  A    between atoms: _390  and  _391
REMARK  153  A    between atoms: _391  and  _392
REMARK  154  A    between atoms: _392  and  _393
REMARK  155  A    between atoms: _402  and  _404
REMARK  156  A    between atoms: _404  and  _405
REMARK  157  A    between atoms: _404  and  _407
REMARK  158  A    between atoms: _407  and  _408
REMARK  159  A    between atoms: _413  and  _415
REMARK  160  A    between atoms: _415  and  _416
REMARK  161  A    between atoms: _415  and  _418
REMARK  162  A    between atoms: _418  and  _419
REMARK  163  A    between atoms: _421  and  _423
REMARK  164  A    between atoms: _423  and  _424
REMARK  165  A    between atoms: _423  and  _426
REMARK  166  A    between atoms: _426  and  _427
REMARK  167  A    between atoms: _430  and  _432
REMARK  168  A    between atoms: _432  and  _433
REMARK  169  A    between atoms: _432  and  _435
REMARK  170  A    between atoms: _435  and  _436
REMARK  171  A    between atoms: _439  and  _441
REMARK  172  A    between atoms: _441  and  _442
REMARK  173  A    between atoms: _441  and  _444
REMARK  174  A    between atoms: _447  and  _449
REMARK  175  A    between atoms: _449  and  _450
REMARK  176  A    between atoms: _452  and  _454
REMARK  177  A    between atoms: _454  and  _455
REMARK  178  A    between atoms: _454  and  _457
REMARK  179  A    between atoms: _457  and  _458
REMARK  180  A    between atoms: _461  and  _463
REMARK  181  A    between atoms: _463  and  _464
REMARK  182  A    between atoms: _466  and  _468
REMARK  183  A    between atoms: _468  and  _469
REMARK  184  A    between atoms: _468  and  _471
REMARK  185  A    between atoms: _471  and  _472
REMARK  186  A    between atoms: _475  and  _477
REMARK  187  A    between atoms: _477  and  _478
REMARK  188  A    between atoms: _477  and  _480
REMARK  189  A    between atoms: _480  and  _481
REMARK  190  A    between atoms: _486  and  _487
REMARK  191  A    between atoms: _489  and  _491
REMARK  192  A    between atoms: _491  and  _492
REMARK  193  A    between atoms: _491  and  _494
REMARK  194  A    between atoms: _494  and  _495
REMARK  195  A    between atoms: _498  and  _500
REMARK  196  A    between atoms: _500  and  _501
REMARK  197  A    between atoms: _500  and  _503
REMARK  198  A    between atoms: _503  and  _504
REMARK  199  A    between atoms: _507  and  _509
REMARK  200  A    between atoms: _509  and  _510
REMARK  201  A    between atoms: _509  and  _512
REMARK  202  A    between atoms: _512  and  _513
REMARK  203  A    between atoms: _518  and  _520
REMARK  204  A    between atoms: _520  and  _521
REMARK  205  A    between atoms: _524  and  _526
REMARK  206  A    between atoms: _526  and  _527
REMARK  207  A    between atoms: _526  and  _529
REMARK  208  A    between atoms: _532  and  _534
REMARK  209  A    between atoms: _534  and  _535
REMARK  210  A    between atoms: _538  and  _540
REMARK  211  A    between atoms: _540  and  _541
REMARK  212  A    between atoms: _540  and  _543
REMARK  213  A    between atoms: _543  and  _544
REMARK  214  A    between atoms: _547  and  _549
REMARK  215  A    between atoms: _549  and  _550
REMARK  216  A    between atoms: _549  and  _552
REMARK  217  A    between atoms: _552  and  _553
REMARK  218  A    between atoms: _553  and  _554
REMARK  219  A    between atoms: _554  and  _555
REMARK  220  A    between atoms: _564  and  _566
REMARK  221  A    between atoms: _566  and  _567
REMARK  222  A    between atoms: _566  and  _569
REMARK  223  A    between atoms: _569  and  _570
REMARK  224  A    between atoms: _573  and  _575
REMARK  225  A    between atoms: _575  and  _576
REMARK  226  A    between atoms: _579  and  _581
REMARK  227  A    between atoms: _581  and  _582
REMARK  228  A    between atoms: _581  and  _584
REMARK  229  A    between atoms: _586  and  _588
REMARK  230  A    between atoms: _588  and  _589
REMARK  231  A    between atoms: _592  and  _594
REMARK  232  A    between atoms: _594  and  _595
REMARK  233  A    between atoms: _594  and  _597
REMARK  234  A    between atoms: _597  and  _598
REMARK  235  A    between atoms: _598  and  _599
REMARK  236  A    between atoms: _602  and  _604
REMARK  237  A    between atoms: _604  and  _605
REMARK  238  A    between atoms: _604  and  _607
REMARK  239  A    between atoms: _607  and  _608
REMARK                            x       y       z     vdW  Elec       q    Type
REMARK                         _______ _______ _______ _____ _____    ______ ____
ROOT
ATOM      1  O   HOH     1      21.212  23.823  -3.346  0.00  0.00    +0.000 OA
ENDROOT
TORSDOF 0
