REMARK  Name = ../refined-set-2016/3f8c/3f8c_pocket.pdb
REMARK  268 active torsions:
REMARK  status: ('A' for Active; 'I' for Inactive)
REMARK    1  A    between atoms: _1  and  _5
REMARK    2  A    between atoms: _5  and  _6
REMARK    3  A    between atoms: _5  and  _8
REMARK    4  A    between atoms: _8  and  _9
REMARK    5  A    between atoms: _9  and  _10
REMARK    6  A    between atoms: _14  and  _15
REMARK    7  A    between atoms: _20  and  _22
REMARK    8  A    between atoms: _22  and  _23
REMARK    9  A    between atoms: _22  and  _25
REMARK   10  A    between atoms: _25  and  _26
REMARK   11  A    between atoms: _26  and  _27
REMARK   12  A    between atoms: _29  and  _31
REMARK   13  A    between atoms: _31  and  _32
REMARK   14  A    between atoms: _31  and  _34
REMARK   15  A    between atoms: _34  and  _35
REMARK   16  A    between atoms: _35  and  _36
REMARK   17  A    between atoms: _36  and  _37
REMARK   18  A    between atoms: _46  and  _48
REMARK   19  A    between atoms: _48  and  _49
REMARK   20  A    between atoms: _52  and  _54
REMARK   21  A    between atoms: _54  and  _55
REMARK   22  A    between atoms: _54  and  _57
REMARK   23  A    between atoms: _57  and  _58
REMARK   24  A    between atoms: _58  and  _59
REMARK   25  A    between atoms: _64  and  _66
REMARK   26  A    between atoms: _66  and  _67
REMARK   27  A    between atoms: _66  and  _69
REMARK   28  A    between atoms: _69  and  _70
REMARK   29  A    between atoms: _73  and  _75
REMARK   30  A    between atoms: _75  and  _76
REMARK   31  A    between atoms: _75  and  _78
REMARK   32  A    between atoms: _78  and  _79
REMARK   33  A    between atoms: _84  and  _86
REMARK   34  A    between atoms: _86  and  _87
REMARK   35  A    between atoms: _86  and  _89
REMARK   36  A    between atoms: _92  and  _94
REMARK   37  A    between atoms: _94  and  _95
REMARK   38  A    between atoms: _94  and  _97
REMARK   39  A    between atoms: _97  and  _98
REMARK   40  A    between atoms: _101  and  _103
REMARK   41  A    between atoms: _103  and  _104
REMARK   42  A    between atoms: _103  and  _106
REMARK   43  A    between atoms: _106  and  _107
REMARK   44  A    between atoms: _110  and  _112
REMARK   45  A    between atoms: _112  and  _113
REMARK   46  A    between atoms: _112  and  _115
REMARK   47  A    between atoms: _115  and  _116
REMARK   48  A    between atoms: _121  and  _123
REMARK   49  A    between atoms: _123  and  _124
REMARK   50  A    between atoms: _123  and  _126
REMARK   51  A    between atoms: _126  and  _127
REMARK   52  A    between atoms: _127  and  _128
REMARK   53  A    between atoms: _128  and  _129
REMARK   54  A    between atoms: _129  and  _130
REMARK   55  A    between atoms: _134  and  _136
REMARK   56  A    between atoms: _136  and  _137
REMARK   57  A    between atoms: _136  and  _139
REMARK   58  A    between atoms: _139  and  _140
REMARK   59  A    between atoms: _140  and  _141
REMARK   60  A    between atoms: _141  and  _142
REMARK   61  A    between atoms: _151  and  _153
REMARK   62  A    between atoms: _153  and  _154
REMARK   63  A    between atoms: _153  and  _156
REMARK   64  A    between atoms: _156  and  _157
REMARK   65  A    between atoms: _160  and  _162
REMARK   66  A    between atoms: _162  and  _163
REMARK   67  A    between atoms: _162  and  _165
REMARK   68  A    between atoms: _165  and  _166
REMARK   69  A    between atoms: _169  and  _171
REMARK   70  A    between atoms: _171  and  _172
REMARK   71  A    between atoms: _171  and  _174
REMARK   72  A    between atoms: _174  and  _175
REMARK   73  A    between atoms: _178  and  _180
REMARK   74  A    between atoms: _180  and  _181
REMARK   75  A    between atoms: _180  and  _183
REMARK   76  A    between atoms: _183  and  _184
REMARK   77  A    between atoms: _187  and  _189
REMARK   78  A    between atoms: _189  and  _190
REMARK   79  A    between atoms: _189  and  _192
REMARK   80  A    between atoms: _192  and  _193
REMARK   81  A    between atoms: _196  and  _198
REMARK   82  A    between atoms: _198  and  _199
REMARK   83  A    between atoms: _201  and  _203
REMARK   84  A    between atoms: _203  and  _204
REMARK   85  A    between atoms: _203  and  _206
REMARK   86  A    between atoms: _206  and  _207
REMARK   87  A    between atoms: _212  and  _214
REMARK   88  A    between atoms: _214  and  _215
REMARK   89  A    between atoms: _214  and  _217
REMARK   90  A    between atoms: _217  and  _218
REMARK   91  A    between atoms: _218  and  _219
REMARK   92  A    between atoms: _222  and  _224
REMARK   93  A    between atoms: _224  and  _225
REMARK   94  A    between atoms: _224  and  _227
REMARK   95  A    between atoms: _227  and  _228
REMARK   96  A    between atoms: _233  and  _235
REMARK   97  A    between atoms: _235  and  _236
REMARK   98  A    between atoms: _235  and  _238
REMARK   99  A    between atoms: _238  and  _239
REMARK  100  A    between atoms: _239  and  _240
REMARK  101  A    between atoms: _242  and  _244
REMARK  102  A    between atoms: _244  and  _245
REMARK  103  A    between atoms: _244  and  _247
REMARK  104  A    between atoms: _247  and  _248
REMARK  105  A    between atoms: _248  and  _249
REMARK  106  A    between atoms: _249  and  _250
REMARK  107  A    between atoms: _259  and  _261
REMARK  108  A    between atoms: _261  and  _262
REMARK  109  A    between atoms: _261  and  _264
REMARK  110  A    between atoms: _264  and  _265
REMARK  111  A    between atoms: _268  and  _270
REMARK  112  A    between atoms: _270  and  _271
REMARK  113  A    between atoms: _274  and  _276
REMARK  114  A    between atoms: _276  and  _277
REMARK  115  A    between atoms: _276  and  _279
REMARK  116  A    between atoms: _279  and  _280
REMARK  117  A    between atoms: _286  and  _288
REMARK  118  A    between atoms: _288  and  _289
REMARK  119  A    between atoms: _288  and  _291
REMARK  120  A    between atoms: _291  and  _292
REMARK  121  A    between atoms: _292  and  _293
REMARK  122  A    between atoms: _296  and  _298
REMARK  123  A    between atoms: _298  and  _299
REMARK  124  A    between atoms: _298  and  _301
REMARK  125  A    between atoms: _301  and  _302
REMARK  126  A    between atoms: _304  and  _306
REMARK  127  A    between atoms: _306  and  _307
REMARK  128  A    between atoms: _306  and  _309
REMARK  129  A    between atoms: _309  and  _310
REMARK  130  A    between atoms: _320  and  _322
REMARK  131  A    between atoms: _322  and  _323
REMARK  132  A    between atoms: _322  and  _325
REMARK  133  A    between atoms: _325  and  _326
REMARK  134  A    between atoms: _328  and  _330
REMARK  135  A    between atoms: _330  and  _331
REMARK  136  A    between atoms: _330  and  _333
REMARK  137  A    between atoms: _336  and  _338
REMARK  138  A    between atoms: _338  and  _339
REMARK  139  A    between atoms: _338  and  _341
REMARK  140  A    between atoms: _341  and  _342
REMARK  141  A    between atoms: _345  and  _347
REMARK  142  A    between atoms: _347  and  _348
REMARK  143  A    between atoms: _347  and  _350
REMARK  144  A    between atoms: _350  and  _351
REMARK  145  A    between atoms: _354  and  _358
REMARK  146  A    between atoms: _358  and  _359
REMARK  147  A    between atoms: _358  and  _361
REMARK  148  A    between atoms: _361  and  _362
REMARK  149  A    between atoms: _362  and  _363
REMARK  150  A    between atoms: _367  and  _368
REMARK  151  A    between atoms: _373  and  _375
REMARK  152  A    between atoms: _375  and  _376
REMARK  153  A    between atoms: _375  and  _378
REMARK  154  A    between atoms: _378  and  _379
REMARK  155  A    between atoms: _379  and  _380
REMARK  156  A    between atoms: _382  and  _384
REMARK  157  A    between atoms: _384  and  _385
REMARK  158  A    between atoms: _388  and  _390
REMARK  159  A    between atoms: _390  and  _391
REMARK  160  A    between atoms: _390  and  _393
REMARK  161  A    between atoms: _393  and  _394
REMARK  162  A    between atoms: _394  and  _395
REMARK  163  A    between atoms: _400  and  _402
REMARK  164  A    between atoms: _402  and  _403
REMARK  165  A    between atoms: _402  and  _405
REMARK  166  A    between atoms: _405  and  _406
REMARK  167  A    between atoms: _411  and  _413
REMARK  168  A    between atoms: _413  and  _414
REMARK  169  A    between atoms: _413  and  _416
REMARK  170  A    between atoms: _419  and  _421
REMARK  171  A    between atoms: _421  and  _422
REMARK  172  A    between atoms: _421  and  _424
REMARK  173  A    between atoms: _424  and  _425
REMARK  174  A    between atoms: _428  and  _430
REMARK  175  A    between atoms: _430  and  _431
REMARK  176  A    between atoms: _430  and  _433
REMARK  177  A    between atoms: _433  and  _434
REMARK  178  A    between atoms: _437  and  _439
REMARK  179  A    between atoms: _439  and  _440
REMARK  180  A    between atoms: _439  and  _442
REMARK  181  A    between atoms: _442  and  _443
REMARK  182  A    between atoms: _448  and  _450
REMARK  183  A    between atoms: _450  and  _451
REMARK  184  A    between atoms: _450  and  _453
REMARK  185  A    between atoms: _453  and  _454
REMARK  186  A    between atoms: _454  and  _455
REMARK  187  A    between atoms: _455  and  _456
REMARK  188  A    between atoms: _456  and  _457
REMARK  189  A    between atoms: _461  and  _463
REMARK  190  A    between atoms: _463  and  _464
REMARK  191  A    between atoms: _463  and  _466
REMARK  192  A    between atoms: _466  and  _467
REMARK  193  A    between atoms: _470  and  _472
REMARK  194  A    between atoms: _472  and  _473
REMARK  195  A    between atoms: _472  and  _475
REMARK  196  A    between atoms: _475  and  _476
REMARK  197  A    between atoms: _479  and  _481
REMARK  198  A    between atoms: _481  and  _482
REMARK  199  A    between atoms: _481  and  _484
REMARK  200  A    between atoms: _484  and  _485
REMARK  201  A    between atoms: _488  and  _490
REMARK  202  A    between atoms: _490  and  _491
REMARK  203  A    between atoms: _490  and  _493
REMARK  204  A    between atoms: _493  and  _494
REMARK  205  A    between atoms: _497  and  _499
REMARK  206  A    between atoms: _499  and  _500
REMARK  207  A    between atoms: _502  and  _504
REMARK  208  A    between atoms: _504  and  _505
REMARK  209  A    between atoms: _504  and  _507
REMARK  210  A    between atoms: _507  and  _508
REMARK  211  A    between atoms: _513  and  _515
REMARK  212  A    between atoms: _515  and  _516
REMARK  213  A    between atoms: _515  and  _518
REMARK  214  A    between atoms: _518  and  _519
REMARK  215  A    between atoms: _519  and  _520
REMARK  216  A    between atoms: _523  and  _525
REMARK  217  A    between atoms: _525  and  _526
REMARK  218  A    between atoms: _525  and  _528
REMARK  219  A    between atoms: _528  and  _529
REMARK  220  A    between atoms: _534  and  _536
REMARK  221  A    between atoms: _536  and  _537
REMARK  222  A    between atoms: _536  and  _539
REMARK  223  A    between atoms: _539  and  _540
REMARK  224  A    between atoms: _540  and  _541
REMARK  225  A    between atoms: _543  and  _545
REMARK  226  A    between atoms: _545  and  _546
REMARK  227  A    between atoms: _545  and  _548
REMARK  228  A    between atoms: _548  and  _549
REMARK  229  A    between atoms: _549  and  _550
REMARK  230  A    between atoms: _550  and  _551
REMARK  231  A    between atoms: _560  and  _562
REMARK  232  A    between atoms: _562  and  _563
REMARK  233  A    between atoms: _562  and  _565
REMARK  234  A    between atoms: _565  and  _566
REMARK  235  A    between atoms: _569  and  _571
REMARK  236  A    between atoms: _571  and  _572
REMARK  237  A    between atoms: _575  and  _577
REMARK  238  A    between atoms: _577  and  _578
REMARK  239  A    between atoms: _577  and  _580
REMARK  240  A    between atoms: _580  and  _581
REMARK  241  A    between atoms: _587  and  _589
REMARK  242  A    between atoms: _589  and  _590
REMARK  243  A    between atoms: _589  and  _592
REMARK  244  A    between atoms: _592  and  _593
REMARK  245  A    between atoms: _593  and  _594
REMARK  246  A    between atoms: _597  and  _599
REMARK  247  A    between atoms: _599  and  _600
REMARK  248  A    between atoms: _599  and  _602
REMARK  249  A    between atoms: _602  and  _603
REMARK  250  A    between atoms: _605  and  _607
REMARK  251  A    between atoms: _607  and  _608
REMARK  252  A    between atoms: _607  and  _610
REMARK  253  A    between atoms: _610  and  _611
REMARK  254  A    between atoms: _621  and  _623
REMARK  255  A    between atoms: _623  and  _624
REMARK  256  A    between atoms: _623  and  _626
REMARK  257  A    between atoms: _626  and  _627
REMARK  258  A    between atoms: _629  and  _631
REMARK  259  A    between atoms: _631  and  _632
REMARK  260  A    between atoms: _631  and  _634
REMARK  261  A    between atoms: _637  and  _639
REMARK  262  A    between atoms: _639  and  _640
REMARK  263  A    between atoms: _639  and  _642
REMARK  264  A    between atoms: _642  and  _643
REMARK  265  A    between atoms: _646  and  _648
REMARK  266  A    between atoms: _648  and  _649
REMARK  267  A    between atoms: _648  and  _651
REMARK  268  A    between atoms: _651  and  _652
REMARK                            x       y       z     vdW  Elec       q    Type
REMARK                         _______ _______ _______ _____ _____    ______ ____
ROOT
ATOM      1  CA  GLU A   1       4.284 -15.526   3.915  0.00  0.00    +0.001 C 
ENDROOT
BRANCH   1   2
ATOM      2  N   GLU A   1       5.644 -15.494   3.306  0.00  0.00    +0.387 N 
ATOM      3  H1  GLU A   1       6.148 -14.644   3.631  0.00  0.00    -0.089 HD
ATOM      4  H2  GLU A   1       6.172 -16.343   3.594  0.00  0.00    -0.089 HD
ATOM      5  H3  GLU A   1       5.558 -15.473   2.270  0.00  0.00    -0.089 HD
ENDBRANCH   1   2
BRANCH   1   6
ATOM      6  C   GLU A   1       3.464 -14.295   3.521  0.00  0.00    +0.185 C 
ATOM      7  O   GLU A   1       2.697 -13.769   4.332  0.00  0.00    -0.291 OA
ENDBRANCH   1   6
BRANCH   1   8
ATOM      8  CB  GLU A   1       4.383 -15.617   5.436  0.00  0.00    -0.002 C 
BRANCH   8   9
ATOM      9  CG  GLU A   1       5.439 -16.568   5.933  0.00  0.00    +0.112 C 
BRANCH   9  10
ATOM     10  CD  GLU A   1       5.818 -16.299   7.372  0.00  0.00    +0.365 C 
ATOM     11  OE2 GLU A   1       5.965 -17.273   8.154  0.00  0.00    -0.246 OA
ATOM     12  OE1 GLU A   1       5.972 -15.111   7.725  0.00  0.00    -0.246 OA
ENDBRANCH   9  10
ENDBRANCH   8   9
ENDBRANCH   1   8
TORSDOF 5
REMARK  Name = ../refined-set-2016/3f8c/3f8c_pocket.pdb
REMARK  268 active torsions:
REMARK  status: ('A' for Active; 'I' for Inactive)
REMARK    1  A    between atoms: _1  and  _5
REMARK    2  A    between atoms: _5  and  _6
REMARK    3  A    between atoms: _5  and  _8
REMARK    4  A    between atoms: _8  and  _9
REMARK    5  A    between atoms: _9  and  _10
REMARK    6  A    between atoms: _14  and  _15
REMARK    7  A    between atoms: _20  and  _22
REMARK    8  A    between atoms: _22  and  _23
REMARK    9  A    between atoms: _22  and  _25
REMARK   10  A    between atoms: _25  and  _26
REMARK   11  A    between atoms: _26  and  _27
REMARK   12  A    between atoms: _29  and  _31
REMARK   13  A    between atoms: _31  and  _32
REMARK   14  A    between atoms: _31  and  _34
REMARK   15  A    between atoms: _34  and  _35
REMARK   16  A    between atoms: _35  and  _36
REMARK   17  A    between atoms: _36  and  _37
REMARK   18  A    between atoms: _46  and  _48
REMARK   19  A    between atoms: _48  and  _49
REMARK   20  A    between atoms: _52  and  _54
REMARK   21  A    between atoms: _54  and  _55
REMARK   22  A    between atoms: _54  and  _57
REMARK   23  A    between atoms: _57  and  _58
REMARK   24  A    between atoms: _58  and  _59
REMARK   25  A    between atoms: _64  and  _66
REMARK   26  A    between atoms: _66  and  _67
REMARK   27  A    between atoms: _66  and  _69
REMARK   28  A    between atoms: _69  and  _70
REMARK   29  A    between atoms: _73  and  _75
REMARK   30  A    between atoms: _75  and  _76
REMARK   31  A    between atoms: _75  and  _78
REMARK   32  A    between atoms: _78  and  _79
REMARK   33  A    between atoms: _84  and  _86
REMARK   34  A    between atoms: _86  and  _87
REMARK   35  A    between atoms: _86  and  _89
REMARK   36  A    between atoms: _92  and  _94
REMARK   37  A    between atoms: _94  and  _95
REMARK   38  A    between atoms: _94  and  _97
REMARK   39  A    between atoms: _97  and  _98
REMARK   40  A    between atoms: _101  and  _103
REMARK   41  A    between atoms: _103  and  _104
REMARK   42  A    between atoms: _103  and  _106
REMARK   43  A    between atoms: _106  and  _107
REMARK   44  A    between atoms: _110  and  _112
REMARK   45  A    between atoms: _112  and  _113
REMARK   46  A    between atoms: _112  and  _115
REMARK   47  A    between atoms: _115  and  _116
REMARK   48  A    between atoms: _121  and  _123
REMARK   49  A    between atoms: _123  and  _124
REMARK   50  A    between atoms: _123  and  _126
REMARK   51  A    between atoms: _126  and  _127
REMARK   52  A    between atoms: _127  and  _128
REMARK   53  A    between atoms: _128  and  _129
REMARK   54  A    between atoms: _129  and  _130
REMARK   55  A    between atoms: _134  and  _136
REMARK   56  A    between atoms: _136  and  _137
REMARK   57  A    between atoms: _136  and  _139
REMARK   58  A    between atoms: _139  and  _140
REMARK   59  A    between atoms: _140  and  _141
REMARK   60  A    between atoms: _141  and  _142
REMARK   61  A    between atoms: _151  and  _153
REMARK   62  A    between atoms: _153  and  _154
REMARK   63  A    between atoms: _153  and  _156
REMARK   64  A    between atoms: _156  and  _157
REMARK   65  A    between atoms: _160  and  _162
REMARK   66  A    between atoms: _162  and  _163
REMARK   67  A    between atoms: _162  and  _165
REMARK   68  A    between atoms: _165  and  _166
REMARK   69  A    between atoms: _169  and  _171
REMARK   70  A    between atoms: _171  and  _172
REMARK   71  A    between atoms: _171  and  _174
REMARK   72  A    between atoms: _174  and  _175
REMARK   73  A    between atoms: _178  and  _180
REMARK   74  A    between atoms: _180  and  _181
REMARK   75  A    between atoms: _180  and  _183
REMARK   76  A    between atoms: _183  and  _184
REMARK   77  A    between atoms: _187  and  _189
REMARK   78  A    between atoms: _189  and  _190
REMARK   79  A    between atoms: _189  and  _192
REMARK   80  A    between atoms: _192  and  _193
REMARK   81  A    between atoms: _196  and  _198
REMARK   82  A    between atoms: _198  and  _199
REMARK   83  A    between atoms: _201  and  _203
REMARK   84  A    between atoms: _203  and  _204
REMARK   85  A    between atoms: _203  and  _206
REMARK   86  A    between atoms: _206  and  _207
REMARK   87  A    between atoms: _212  and  _214
REMARK   88  A    between atoms: _214  and  _215
REMARK   89  A    between atoms: _214  and  _217
REMARK   90  A    between atoms: _217  and  _218
REMARK   91  A    between atoms: _218  and  _219
REMARK   92  A    between atoms: _222  and  _224
REMARK   93  A    between atoms: _224  and  _225
REMARK   94  A    between atoms: _224  and  _227
REMARK   95  A    between atoms: _227  and  _228
REMARK   96  A    between atoms: _233  and  _235
REMARK   97  A    between atoms: _235  and  _236
REMARK   98  A    between atoms: _235  and  _238
REMARK   99  A    between atoms: _238  and  _239
REMARK  100  A    between atoms: _239  and  _240
REMARK  101  A    between atoms: _242  and  _244
REMARK  102  A    between atoms: _244  and  _245
REMARK  103  A    between atoms: _244  and  _247
REMARK  104  A    between atoms: _247  and  _248
REMARK  105  A    between atoms: _248  and  _249
REMARK  106  A    between atoms: _249  and  _250
REMARK  107  A    between atoms: _259  and  _261
REMARK  108  A    between atoms: _261  and  _262
REMARK  109  A    between atoms: _261  and  _264
REMARK  110  A    between atoms: _264  and  _265
REMARK  111  A    between atoms: _268  and  _270
REMARK  112  A    between atoms: _270  and  _271
REMARK  113  A    between atoms: _274  and  _276
REMARK  114  A    between atoms: _276  and  _277
REMARK  115  A    between atoms: _276  and  _279
REMARK  116  A    between atoms: _279  and  _280
REMARK  117  A    between atoms: _286  and  _288
REMARK  118  A    between atoms: _288  and  _289
REMARK  119  A    between atoms: _288  and  _291
REMARK  120  A    between atoms: _291  and  _292
REMARK  121  A    between atoms: _292  and  _293
REMARK  122  A    between atoms: _296  and  _298
REMARK  123  A    between atoms: _298  and  _299
REMARK  124  A    between atoms: _298  and  _301
REMARK  125  A    between atoms: _301  and  _302
REMARK  126  A    between atoms: _304  and  _306
REMARK  127  A    between atoms: _306  and  _307
REMARK  128  A    between atoms: _306  and  _309
REMARK  129  A    between atoms: _309  and  _310
REMARK  130  A    between atoms: _320  and  _322
REMARK  131  A    between atoms: _322  and  _323
REMARK  132  A    between atoms: _322  and  _325
REMARK  133  A    between atoms: _325  and  _326
REMARK  134  A    between atoms: _328  and  _330
REMARK  135  A    between atoms: _330  and  _331
REMARK  136  A    between atoms: _330  and  _333
REMARK  137  A    between atoms: _336  and  _338
REMARK  138  A    between atoms: _338  and  _339
REMARK  139  A    between atoms: _338  and  _341
REMARK  140  A    between atoms: _341  and  _342
REMARK  141  A    between atoms: _345  and  _347
REMARK  142  A    between atoms: _347  and  _348
REMARK  143  A    between atoms: _347  and  _350
REMARK  144  A    between atoms: _350  and  _351
REMARK  145  A    between atoms: _354  and  _358
REMARK  146  A    between atoms: _358  and  _359
REMARK  147  A    between atoms: _358  and  _361
REMARK  148  A    between atoms: _361  and  _362
REMARK  149  A    between atoms: _362  and  _363
REMARK  150  A    between atoms: _367  and  _368
REMARK  151  A    between atoms: _373  and  _375
REMARK  152  A    between atoms: _375  and  _376
REMARK  153  A    between atoms: _375  and  _378
REMARK  154  A    between atoms: _378  and  _379
REMARK  155  A    between atoms: _379  and  _380
REMARK  156  A    between atoms: _382  and  _384
REMARK  157  A    between atoms: _384  and  _385
REMARK  158  A    between atoms: _388  and  _390
REMARK  159  A    between atoms: _390  and  _391
REMARK  160  A    between atoms: _390  and  _393
REMARK  161  A    between atoms: _393  and  _394
REMARK  162  A    between atoms: _394  and  _395
REMARK  163  A    between atoms: _400  and  _402
REMARK  164  A    between atoms: _402  and  _403
REMARK  165  A    between atoms: _402  and  _405
REMARK  166  A    between atoms: _405  and  _406
REMARK  167  A    between atoms: _411  and  _413
REMARK  168  A    between atoms: _413  and  _414
REMARK  169  A    between atoms: _413  and  _416
REMARK  170  A    between atoms: _419  and  _421
REMARK  171  A    between atoms: _421  and  _422
REMARK  172  A    between atoms: _421  and  _424
REMARK  173  A    between atoms: _424  and  _425
REMARK  174  A    between atoms: _428  and  _430
REMARK  175  A    between atoms: _430  and  _431
REMARK  176  A    between atoms: _430  and  _433
REMARK  177  A    between atoms: _433  and  _434
REMARK  178  A    between atoms: _437  and  _439
REMARK  179  A    between atoms: _439  and  _440
REMARK  180  A    between atoms: _439  and  _442
REMARK  181  A    between atoms: _442  and  _443
REMARK  182  A    between atoms: _448  and  _450
REMARK  183  A    between atoms: _450  and  _451
REMARK  184  A    between atoms: _450  and  _453
REMARK  185  A    between atoms: _453  and  _454
REMARK  186  A    between atoms: _454  and  _455
REMARK  187  A    between atoms: _455  and  _456
REMARK  188  A    between atoms: _456  and  _457
REMARK  189  A    between atoms: _461  and  _463
REMARK  190  A    between atoms: _463  and  _464
REMARK  191  A    between atoms: _463  and  _466
REMARK  192  A    between atoms: _466  and  _467
REMARK  193  A    between atoms: _470  and  _472
REMARK  194  A    between atoms: _472  and  _473
REMARK  195  A    between atoms: _472  and  _475
REMARK  196  A    between atoms: _475  and  _476
REMARK  197  A    between atoms: _479  and  _481
REMARK  198  A    between atoms: _481  and  _482
REMARK  199  A    between atoms: _481  and  _484
REMARK  200  A    between atoms: _484  and  _485
REMARK  201  A    between atoms: _488  and  _490
REMARK  202  A    between atoms: _490  and  _491
REMARK  203  A    between atoms: _490  and  _493
REMARK  204  A    between atoms: _493  and  _494
REMARK  205  A    between atoms: _497  and  _499
REMARK  206  A    between atoms: _499  and  _500
REMARK  207  A    between atoms: _502  and  _504
REMARK  208  A    between atoms: _504  and  _505
REMARK  209  A    between atoms: _504  and  _507
REMARK  210  A    between atoms: _507  and  _508
REMARK  211  A    between atoms: _513  and  _515
REMARK  212  A    between atoms: _515  and  _516
REMARK  213  A    between atoms: _515  and  _518
REMARK  214  A    between atoms: _518  and  _519
REMARK  215  A    between atoms: _519  and  _520
REMARK  216  A    between atoms: _523  and  _525
REMARK  217  A    between atoms: _525  and  _526
REMARK  218  A    between atoms: _525  and  _528
REMARK  219  A    between atoms: _528  and  _529
REMARK  220  A    between atoms: _534  and  _536
REMARK  221  A    between atoms: _536  and  _537
REMARK  222  A    between atoms: _536  and  _539
REMARK  223  A    between atoms: _539  and  _540
REMARK  224  A    between atoms: _540  and  _541
REMARK  225  A    between atoms: _543  and  _545
REMARK  226  A    between atoms: _545  and  _546
REMARK  227  A    between atoms: _545  and  _548
REMARK  228  A    between atoms: _548  and  _549
REMARK  229  A    between atoms: _549  and  _550
REMARK  230  A    between atoms: _550  and  _551
REMARK  231  A    between atoms: _560  and  _562
REMARK  232  A    between atoms: _562  and  _563
REMARK  233  A    between atoms: _562  and  _565
REMARK  234  A    between atoms: _565  and  _566
REMARK  235  A    between atoms: _569  and  _571
REMARK  236  A    between atoms: _571  and  _572
REMARK  237  A    between atoms: _575  and  _577
REMARK  238  A    between atoms: _577  and  _578
REMARK  239  A    between atoms: _577  and  _580
REMARK  240  A    between atoms: _580  and  _581
REMARK  241  A    between atoms: _587  and  _589
REMARK  242  A    between atoms: _589  and  _590
REMARK  243  A    between atoms: _589  and  _592
REMARK  244  A    between atoms: _592  and  _593
REMARK  245  A    between atoms: _593  and  _594
REMARK  246  A    between atoms: _597  and  _599
REMARK  247  A    between atoms: _599  and  _600
REMARK  248  A    between atoms: _599  and  _602
REMARK  249  A    between atoms: _602  and  _603
REMARK  250  A    between atoms: _605  and  _607
REMARK  251  A    between atoms: _607  and  _608
REMARK  252  A    between atoms: _607  and  _610
REMARK  253  A    between atoms: _610  and  _611
REMARK  254  A    between atoms: _621  and  _623
REMARK  255  A    between atoms: _623  and  _624
REMARK  256  A    between atoms: _623  and  _626
REMARK  257  A    between atoms: _626  and  _627
REMARK  258  A    between atoms: _629  and  _631
REMARK  259  A    between atoms: _631  and  _632
REMARK  260  A    between atoms: _631  and  _634
REMARK  261  A    between atoms: _637  and  _639
REMARK  262  A    between atoms: _639  and  _640
REMARK  263  A    between atoms: _639  and  _642
REMARK  264  A    between atoms: _642  and  _643
REMARK  265  A    between atoms: _646  and  _648
REMARK  266  A    between atoms: _648  and  _649
REMARK  267  A    between atoms: _648  and  _651
REMARK  268  A    between atoms: _651  and  _652
REMARK                            x       y       z     vdW  Elec       q    Type
REMARK                         _______ _______ _______ _____ _____    ______ ____
ROOT
ATOM      1  N   PRO A   1       0.325 -13.155   1.545  0.00  0.00    -0.212 NA
ATOM      2  CD  PRO A   1       0.065 -12.190   2.634  0.00  0.00    +0.089 C 
ATOM      3  CG  PRO A   1      -1.375 -12.456   2.994  0.00  0.00    +0.021 C 
ATOM      4  CB  PRO A   1      -2.005 -12.947   1.722  0.00  0.00    +0.027 C 
ATOM      5  CA  PRO A   1      -0.905 -13.788   1.067  0.00  0.00    +0.137 C 
ENDROOT
BRANCH   5   6
ATOM      6  C   PRO A   1      -1.026 -13.742  -0.456  0.00  0.00    +0.224 C 
ATOM      7  O   PRO A   1      -0.689 -12.728  -1.082  0.00  0.00    -0.287 OA
ENDBRANCH   5   6
TORSDOF 1
REMARK  Name = ../refined-set-2016/3f8c/3f8c_pocket.pdb
REMARK  268 active torsions:
REMARK  status: ('A' for Active; 'I' for Inactive)
REMARK    1  A    between atoms: _1  and  _5
REMARK    2  A    between atoms: _5  and  _6
REMARK    3  A    between atoms: _5  and  _8
REMARK    4  A    between atoms: _8  and  _9
REMARK    5  A    between atoms: _9  and  _10
REMARK    6  A    between atoms: _14  and  _15
REMARK    7  A    between atoms: _20  and  _22
REMARK    8  A    between atoms: _22  and  _23
REMARK    9  A    between atoms: _22  and  _25
REMARK   10  A    between atoms: _25  and  _26
REMARK   11  A    between atoms: _26  and  _27
REMARK   12  A    between atoms: _29  and  _31
REMARK   13  A    between atoms: _31  and  _32
REMARK   14  A    between atoms: _31  and  _34
REMARK   15  A    between atoms: _34  and  _35
REMARK   16  A    between atoms: _35  and  _36
REMARK   17  A    between atoms: _36  and  _37
REMARK   18  A    between atoms: _46  and  _48
REMARK   19  A    between atoms: _48  and  _49
REMARK   20  A    between atoms: _52  and  _54
REMARK   21  A    between atoms: _54  and  _55
REMARK   22  A    between atoms: _54  and  _57
REMARK   23  A    between atoms: _57  and  _58
REMARK   24  A    between atoms: _58  and  _59
REMARK   25  A    between atoms: _64  and  _66
REMARK   26  A    between atoms: _66  and  _67
REMARK   27  A    between atoms: _66  and  _69
REMARK   28  A    between atoms: _69  and  _70
REMARK   29  A    between atoms: _73  and  _75
REMARK   30  A    between atoms: _75  and  _76
REMARK   31  A    between atoms: _75  and  _78
REMARK   32  A    between atoms: _78  and  _79
REMARK   33  A    between atoms: _84  and  _86
REMARK   34  A    between atoms: _86  and  _87
REMARK   35  A    between atoms: _86  and  _89
REMARK   36  A    between atoms: _92  and  _94
REMARK   37  A    between atoms: _94  and  _95
REMARK   38  A    between atoms: _94  and  _97
REMARK   39  A    between atoms: _97  and  _98
REMARK   40  A    between atoms: _101  and  _103
REMARK   41  A    between atoms: _103  and  _104
REMARK   42  A    between atoms: _103  and  _106
REMARK   43  A    between atoms: _106  and  _107
REMARK   44  A    between atoms: _110  and  _112
REMARK   45  A    between atoms: _112  and  _113
REMARK   46  A    between atoms: _112  and  _115
REMARK   47  A    between atoms: _115  and  _116
REMARK   48  A    between atoms: _121  and  _123
REMARK   49  A    between atoms: _123  and  _124
REMARK   50  A    between atoms: _123  and  _126
REMARK   51  A    between atoms: _126  and  _127
REMARK   52  A    between atoms: _127  and  _128
REMARK   53  A    between atoms: _128  and  _129
REMARK   54  A    between atoms: _129  and  _130
REMARK   55  A    between atoms: _134  and  _136
REMARK   56  A    between atoms: _136  and  _137
REMARK   57  A    between atoms: _136  and  _139
REMARK   58  A    between atoms: _139  and  _140
REMARK   59  A    between atoms: _140  and  _141
REMARK   60  A    between atoms: _141  and  _142
REMARK   61  A    between atoms: _151  and  _153
REMARK   62  A    between atoms: _153  and  _154
REMARK   63  A    between atoms: _153  and  _156
REMARK   64  A    between atoms: _156  and  _157
REMARK   65  A    between atoms: _160  and  _162
REMARK   66  A    between atoms: _162  and  _163
REMARK   67  A    between atoms: _162  and  _165
REMARK   68  A    between atoms: _165  and  _166
REMARK   69  A    between atoms: _169  and  _171
REMARK   70  A    between atoms: _171  and  _172
REMARK   71  A    between atoms: _171  and  _174
REMARK   72  A    between atoms: _174  and  _175
REMARK   73  A    between atoms: _178  and  _180
REMARK   74  A    between atoms: _180  and  _181
REMARK   75  A    between atoms: _180  and  _183
REMARK   76  A    between atoms: _183  and  _184
REMARK   77  A    between atoms: _187  and  _189
REMARK   78  A    between atoms: _189  and  _190
REMARK   79  A    between atoms: _189  and  _192
REMARK   80  A    between atoms: _192  and  _193
REMARK   81  A    between atoms: _196  and  _198
REMARK   82  A    between atoms: _198  and  _199
REMARK   83  A    between atoms: _201  and  _203
REMARK   84  A    between atoms: _203  and  _204
REMARK   85  A    between atoms: _203  and  _206
REMARK   86  A    between atoms: _206  and  _207
REMARK   87  A    between atoms: _212  and  _214
REMARK   88  A    between atoms: _214  and  _215
REMARK   89  A    between atoms: _214  and  _217
REMARK   90  A    between atoms: _217  and  _218
REMARK   91  A    between atoms: _218  and  _219
REMARK   92  A    between atoms: _222  and  _224
REMARK   93  A    between atoms: _224  and  _225
REMARK   94  A    between atoms: _224  and  _227
REMARK   95  A    between atoms: _227  and  _228
REMARK   96  A    between atoms: _233  and  _235
REMARK   97  A    between atoms: _235  and  _236
REMARK   98  A    between atoms: _235  and  _238
REMARK   99  A    between atoms: _238  and  _239
REMARK  100  A    between atoms: _239  and  _240
REMARK  101  A    between atoms: _242  and  _244
REMARK  102  A    between atoms: _244  and  _245
REMARK  103  A    between atoms: _244  and  _247
REMARK  104  A    between atoms: _247  and  _248
REMARK  105  A    between atoms: _248  and  _249
REMARK  106  A    between atoms: _249  and  _250
REMARK  107  A    between atoms: _259  and  _261
REMARK  108  A    between atoms: _261  and  _262
REMARK  109  A    between atoms: _261  and  _264
REMARK  110  A    between atoms: _264  and  _265
REMARK  111  A    between atoms: _268  and  _270
REMARK  112  A    between atoms: _270  and  _271
REMARK  113  A    between atoms: _274  and  _276
REMARK  114  A    between atoms: _276  and  _277
REMARK  115  A    between atoms: _276  and  _279
REMARK  116  A    between atoms: _279  and  _280
REMARK  117  A    between atoms: _286  and  _288
REMARK  118  A    between atoms: _288  and  _289
REMARK  119  A    between atoms: _288  and  _291
REMARK  120  A    between atoms: _291  and  _292
REMARK  121  A    between atoms: _292  and  _293
REMARK  122  A    between atoms: _296  and  _298
REMARK  123  A    between atoms: _298  and  _299
REMARK  124  A    between atoms: _298  and  _301
REMARK  125  A    between atoms: _301  and  _302
REMARK  126  A    between atoms: _304  and  _306
REMARK  127  A    between atoms: _306  and  _307
REMARK  128  A    between atoms: _306  and  _309
REMARK  129  A    between atoms: _309  and  _310
REMARK  130  A    between atoms: _320  and  _322
REMARK  131  A    between atoms: _322  and  _323
REMARK  132  A    between atoms: _322  and  _325
REMARK  133  A    between atoms: _325  and  _326
REMARK  134  A    between atoms: _328  and  _330
REMARK  135  A    between atoms: _330  and  _331
REMARK  136  A    between atoms: _330  and  _333
REMARK  137  A    between atoms: _336  and  _338
REMARK  138  A    between atoms: _338  and  _339
REMARK  139  A    between atoms: _338  and  _341
REMARK  140  A    between atoms: _341  and  _342
REMARK  141  A    between atoms: _345  and  _347
REMARK  142  A    between atoms: _347  and  _348
REMARK  143  A    between atoms: _347  and  _350
REMARK  144  A    between atoms: _350  and  _351
REMARK  145  A    between atoms: _354  and  _358
REMARK  146  A    between atoms: _358  and  _359
REMARK  147  A    between atoms: _358  and  _361
REMARK  148  A    between atoms: _361  and  _362
REMARK  149  A    between atoms: _362  and  _363
REMARK  150  A    between atoms: _367  and  _368
REMARK  151  A    between atoms: _373  and  _375
REMARK  152  A    between atoms: _375  and  _376
REMARK  153  A    between atoms: _375  and  _378
REMARK  154  A    between atoms: _378  and  _379
REMARK  155  A    between atoms: _379  and  _380
REMARK  156  A    between atoms: _382  and  _384
REMARK  157  A    between atoms: _384  and  _385
REMARK  158  A    between atoms: _388  and  _390
REMARK  159  A    between atoms: _390  and  _391
REMARK  160  A    between atoms: _390  and  _393
REMARK  161  A    between atoms: _393  and  _394
REMARK  162  A    between atoms: _394  and  _395
REMARK  163  A    between atoms: _400  and  _402
REMARK  164  A    between atoms: _402  and  _403
REMARK  165  A    between atoms: _402  and  _405
REMARK  166  A    between atoms: _405  and  _406
REMARK  167  A    between atoms: _411  and  _413
REMARK  168  A    between atoms: _413  and  _414
REMARK  169  A    between atoms: _413  and  _416
REMARK  170  A    between atoms: _419  and  _421
REMARK  171  A    between atoms: _421  and  _422
REMARK  172  A    between atoms: _421  and  _424
REMARK  173  A    between atoms: _424  and  _425
REMARK  174  A    between atoms: _428  and  _430
REMARK  175  A    between atoms: _430  and  _431
REMARK  176  A    between atoms: _430  and  _433
REMARK  177  A    between atoms: _433  and  _434
REMARK  178  A    between atoms: _437  and  _439
REMARK  179  A    between atoms: _439  and  _440
REMARK  180  A    between atoms: _439  and  _442
REMARK  181  A    between atoms: _442  and  _443
REMARK  182  A    between atoms: _448  and  _450
REMARK  183  A    between atoms: _450  and  _451
REMARK  184  A    between atoms: _450  and  _453
REMARK  185  A    between atoms: _453  and  _454
REMARK  186  A    between atoms: _454  and  _455
REMARK  187  A    between atoms: _455  and  _456
REMARK  188  A    between atoms: _456  and  _457
REMARK  189  A    between atoms: _461  and  _463
REMARK  190  A    between atoms: _463  and  _464
REMARK  191  A    between atoms: _463  and  _466
REMARK  192  A    between atoms: _466  and  _467
REMARK  193  A    between atoms: _470  and  _472
REMARK  194  A    between atoms: _472  and  _473
REMARK  195  A    between atoms: _472  and  _475
REMARK  196  A    between atoms: _475  and  _476
REMARK  197  A    between atoms: _479  and  _481
REMARK  198  A    between atoms: _481  and  _482
REMARK  199  A    between atoms: _481  and  _484
REMARK  200  A    between atoms: _484  and  _485
REMARK  201  A    between atoms: _488  and  _490
REMARK  202  A    between atoms: _490  and  _491
REMARK  203  A    between atoms: _490  and  _493
REMARK  204  A    between atoms: _493  and  _494
REMARK  205  A    between atoms: _497  and  _499
REMARK  206  A    between atoms: _499  and  _500
REMARK  207  A    between atoms: _502  and  _504
REMARK  208  A    between atoms: _504  and  _505
REMARK  209  A    between atoms: _504  and  _507
REMARK  210  A    between atoms: _507  and  _508
REMARK  211  A    between atoms: _513  and  _515
REMARK  212  A    between atoms: _515  and  _516
REMARK  213  A    between atoms: _515  and  _518
REMARK  214  A    between atoms: _518  and  _519
REMARK  215  A    between atoms: _519  and  _520
REMARK  216  A    between atoms: _523  and  _525
REMARK  217  A    between atoms: _525  and  _526
REMARK  218  A    between atoms: _525  and  _528
REMARK  219  A    between atoms: _528  and  _529
REMARK  220  A    between atoms: _534  and  _536
REMARK  221  A    between atoms: _536  and  _537
REMARK  222  A    between atoms: _536  and  _539
REMARK  223  A    between atoms: _539  and  _540
REMARK  224  A    between atoms: _540  and  _541
REMARK  225  A    between atoms: _543  and  _545
REMARK  226  A    between atoms: _545  and  _546
REMARK  227  A    between atoms: _545  and  _548
REMARK  228  A    between atoms: _548  and  _549
REMARK  229  A    between atoms: _549  and  _550
REMARK  230  A    between atoms: _550  and  _551
REMARK  231  A    between atoms: _560  and  _562
REMARK  232  A    between atoms: _562  and  _563
REMARK  233  A    between atoms: _562  and  _565
REMARK  234  A    between atoms: _565  and  _566
REMARK  235  A    between atoms: _569  and  _571
REMARK  236  A    between atoms: _571  and  _572
REMARK  237  A    between atoms: _575  and  _577
REMARK  238  A    between atoms: _577  and  _578
REMARK  239  A    between atoms: _577  and  _580
REMARK  240  A    between atoms: _580  and  _581
REMARK  241  A    between atoms: _587  and  _589
REMARK  242  A    between atoms: _589  and  _590
REMARK  243  A    between atoms: _589  and  _592
REMARK  244  A    between atoms: _592  and  _593
REMARK  245  A    between atoms: _593  and  _594
REMARK  246  A    between atoms: _597  and  _599
REMARK  247  A    between atoms: _599  and  _600
REMARK  248  A    between atoms: _599  and  _602
REMARK  249  A    between atoms: _602  and  _603
REMARK  250  A    between atoms: _605  and  _607
REMARK  251  A    between atoms: _607  and  _608
REMARK  252  A    between atoms: _607  and  _610
REMARK  253  A    between atoms: _610  and  _611
REMARK  254  A    between atoms: _621  and  _623
REMARK  255  A    between atoms: _623  and  _624
REMARK  256  A    between atoms: _623  and  _626
REMARK  257  A    between atoms: _626  and  _627
REMARK  258  A    between atoms: _629  and  _631
REMARK  259  A    between atoms: _631  and  _632
REMARK  260  A    between atoms: _631  and  _634
REMARK  261  A    between atoms: _637  and  _639
REMARK  262  A    between atoms: _639  and  _640
REMARK  263  A    between atoms: _639  and  _642
REMARK  264  A    between atoms: _642  and  _643
REMARK  265  A    between atoms: _646  and  _648
REMARK  266  A    between atoms: _648  and  _649
REMARK  267  A    between atoms: _648  and  _651
REMARK  268  A    between atoms: _651  and  _652
REMARK                            x       y       z     vdW  Elec       q    Type
REMARK                         _______ _______ _______ _____ _____    ______ ____
ROOT
ATOM      1  CA  MET A   1      -1.877  -9.572  -1.759  0.00  0.00    +0.134 C 
ENDROOT
BRANCH   1   2
ATOM      2  N   MET A   1      -2.671 -10.811  -1.765  0.00  0.00    -0.239 NA
ATOM      3  H   MET A   1      -2.422 -11.586  -1.118  0.00  0.00    +0.142 HD
ENDBRANCH   1   2
BRANCH   1   4
ATOM      4  C   MET A   1      -0.938  -9.485  -2.982  0.00  0.00    +0.224 C 
ATOM      5  O   MET A   1      -0.714  -8.393  -3.541  0.00  0.00    -0.287 OA
ENDBRANCH   1   4
BRANCH   1   6
ATOM      6  CB  MET A   1      -1.076  -9.433  -0.459  0.00  0.00    +0.037 C 
BRANCH   6   7
ATOM      7  CG  MET A   1      -0.369  -8.092  -0.322  0.00  0.00    +0.059 C 
BRANCH   7   8
ATOM      8  SD  MET A   1       0.614  -7.943   1.187  0.00  0.00    -0.139 S 
ATOM      9  CE  MET A   1      -0.678  -7.821   2.413  0.00  0.00    +0.069 C 
ENDBRANCH   7   8
ENDBRANCH   6   7
ENDBRANCH   1   6
TORSDOF 5
REMARK  Name = ../refined-set-2016/3f8c/3f8c_pocket.pdb
REMARK  268 active torsions:
REMARK  status: ('A' for Active; 'I' for Inactive)
REMARK    1  A    between atoms: _1  and  _5
REMARK    2  A    between atoms: _5  and  _6
REMARK    3  A    between atoms: _5  and  _8
REMARK    4  A    between atoms: _8  and  _9
REMARK    5  A    between atoms: _9  and  _10
REMARK    6  A    between atoms: _14  and  _15
REMARK    7  A    between atoms: _20  and  _22
REMARK    8  A    between atoms: _22  and  _23
REMARK    9  A    between atoms: _22  and  _25
REMARK   10  A    between atoms: _25  and  _26
REMARK   11  A    between atoms: _26  and  _27
REMARK   12  A    between atoms: _29  and  _31
REMARK   13  A    between atoms: _31  and  _32
REMARK   14  A    between atoms: _31  and  _34
REMARK   15  A    between atoms: _34  and  _35
REMARK   16  A    between atoms: _35  and  _36
REMARK   17  A    between atoms: _36  and  _37
REMARK   18  A    between atoms: _46  and  _48
REMARK   19  A    between atoms: _48  and  _49
REMARK   20  A    between atoms: _52  and  _54
REMARK   21  A    between atoms: _54  and  _55
REMARK   22  A    between atoms: _54  and  _57
REMARK   23  A    between atoms: _57  and  _58
REMARK   24  A    between atoms: _58  and  _59
REMARK   25  A    between atoms: _64  and  _66
REMARK   26  A    between atoms: _66  and  _67
REMARK   27  A    between atoms: _66  and  _69
REMARK   28  A    between atoms: _69  and  _70
REMARK   29  A    between atoms: _73  and  _75
REMARK   30  A    between atoms: _75  and  _76
REMARK   31  A    between atoms: _75  and  _78
REMARK   32  A    between atoms: _78  and  _79
REMARK   33  A    between atoms: _84  and  _86
REMARK   34  A    between atoms: _86  and  _87
REMARK   35  A    between atoms: _86  and  _89
REMARK   36  A    between atoms: _92  and  _94
REMARK   37  A    between atoms: _94  and  _95
REMARK   38  A    between atoms: _94  and  _97
REMARK   39  A    between atoms: _97  and  _98
REMARK   40  A    between atoms: _101  and  _103
REMARK   41  A    between atoms: _103  and  _104
REMARK   42  A    between atoms: _103  and  _106
REMARK   43  A    between atoms: _106  and  _107
REMARK   44  A    between atoms: _110  and  _112
REMARK   45  A    between atoms: _112  and  _113
REMARK   46  A    between atoms: _112  and  _115
REMARK   47  A    between atoms: _115  and  _116
REMARK   48  A    between atoms: _121  and  _123
REMARK   49  A    between atoms: _123  and  _124
REMARK   50  A    between atoms: _123  and  _126
REMARK   51  A    between atoms: _126  and  _127
REMARK   52  A    between atoms: _127  and  _128
REMARK   53  A    between atoms: _128  and  _129
REMARK   54  A    between atoms: _129  and  _130
REMARK   55  A    between atoms: _134  and  _136
REMARK   56  A    between atoms: _136  and  _137
REMARK   57  A    between atoms: _136  and  _139
REMARK   58  A    between atoms: _139  and  _140
REMARK   59  A    between atoms: _140  and  _141
REMARK   60  A    between atoms: _141  and  _142
REMARK   61  A    between atoms: _151  and  _153
REMARK   62  A    between atoms: _153  and  _154
REMARK   63  A    between atoms: _153  and  _156
REMARK   64  A    between atoms: _156  and  _157
REMARK   65  A    between atoms: _160  and  _162
REMARK   66  A    between atoms: _162  and  _163
REMARK   67  A    between atoms: _162  and  _165
REMARK   68  A    between atoms: _165  and  _166
REMARK   69  A    between atoms: _169  and  _171
REMARK   70  A    between atoms: _171  and  _172
REMARK   71  A    between atoms: _171  and  _174
REMARK   72  A    between atoms: _174  and  _175
REMARK   73  A    between atoms: _178  and  _180
REMARK   74  A    between atoms: _180  and  _181
REMARK   75  A    between atoms: _180  and  _183
REMARK   76  A    between atoms: _183  and  _184
REMARK   77  A    between atoms: _187  and  _189
REMARK   78  A    between atoms: _189  and  _190
REMARK   79  A    between atoms: _189  and  _192
REMARK   80  A    between atoms: _192  and  _193
REMARK   81  A    between atoms: _196  and  _198
REMARK   82  A    between atoms: _198  and  _199
REMARK   83  A    between atoms: _201  and  _203
REMARK   84  A    between atoms: _203  and  _204
REMARK   85  A    between atoms: _203  and  _206
REMARK   86  A    between atoms: _206  and  _207
REMARK   87  A    between atoms: _212  and  _214
REMARK   88  A    between atoms: _214  and  _215
REMARK   89  A    between atoms: _214  and  _217
REMARK   90  A    between atoms: _217  and  _218
REMARK   91  A    between atoms: _218  and  _219
REMARK   92  A    between atoms: _222  and  _224
REMARK   93  A    between atoms: _224  and  _225
REMARK   94  A    between atoms: _224  and  _227
REMARK   95  A    between atoms: _227  and  _228
REMARK   96  A    between atoms: _233  and  _235
REMARK   97  A    between atoms: _235  and  _236
REMARK   98  A    between atoms: _235  and  _238
REMARK   99  A    between atoms: _238  and  _239
REMARK  100  A    between atoms: _239  and  _240
REMARK  101  A    between atoms: _242  and  _244
REMARK  102  A    between atoms: _244  and  _245
REMARK  103  A    between atoms: _244  and  _247
REMARK  104  A    between atoms: _247  and  _248
REMARK  105  A    between atoms: _248  and  _249
REMARK  106  A    between atoms: _249  and  _250
REMARK  107  A    between atoms: _259  and  _261
REMARK  108  A    between atoms: _261  and  _262
REMARK  109  A    between atoms: _261  and  _264
REMARK  110  A    between atoms: _264  and  _265
REMARK  111  A    between atoms: _268  and  _270
REMARK  112  A    between atoms: _270  and  _271
REMARK  113  A    between atoms: _274  and  _276
REMARK  114  A    between atoms: _276  and  _277
REMARK  115  A    between atoms: _276  and  _279
REMARK  116  A    between atoms: _279  and  _280
REMARK  117  A    between atoms: _286  and  _288
REMARK  118  A    between atoms: _288  and  _289
REMARK  119  A    between atoms: _288  and  _291
REMARK  120  A    between atoms: _291  and  _292
REMARK  121  A    between atoms: _292  and  _293
REMARK  122  A    between atoms: _296  and  _298
REMARK  123  A    between atoms: _298  and  _299
REMARK  124  A    between atoms: _298  and  _301
REMARK  125  A    between atoms: _301  and  _302
REMARK  126  A    between atoms: _304  and  _306
REMARK  127  A    between atoms: _306  and  _307
REMARK  128  A    between atoms: _306  and  _309
REMARK  129  A    between atoms: _309  and  _310
REMARK  130  A    between atoms: _320  and  _322
REMARK  131  A    between atoms: _322  and  _323
REMARK  132  A    between atoms: _322  and  _325
REMARK  133  A    between atoms: _325  and  _326
REMARK  134  A    between atoms: _328  and  _330
REMARK  135  A    between atoms: _330  and  _331
REMARK  136  A    between atoms: _330  and  _333
REMARK  137  A    between atoms: _336  and  _338
REMARK  138  A    between atoms: _338  and  _339
REMARK  139  A    between atoms: _338  and  _341
REMARK  140  A    between atoms: _341  and  _342
REMARK  141  A    between atoms: _345  and  _347
REMARK  142  A    between atoms: _347  and  _348
REMARK  143  A    between atoms: _347  and  _350
REMARK  144  A    between atoms: _350  and  _351
REMARK  145  A    between atoms: _354  and  _358
REMARK  146  A    between atoms: _358  and  _359
REMARK  147  A    between atoms: _358  and  _361
REMARK  148  A    between atoms: _361  and  _362
REMARK  149  A    between atoms: _362  and  _363
REMARK  150  A    between atoms: _367  and  _368
REMARK  151  A    between atoms: _373  and  _375
REMARK  152  A    between atoms: _375  and  _376
REMARK  153  A    between atoms: _375  and  _378
REMARK  154  A    between atoms: _378  and  _379
REMARK  155  A    between atoms: _379  and  _380
REMARK  156  A    between atoms: _382  and  _384
REMARK  157  A    between atoms: _384  and  _385
REMARK  158  A    between atoms: _388  and  _390
REMARK  159  A    between atoms: _390  and  _391
REMARK  160  A    between atoms: _390  and  _393
REMARK  161  A    between atoms: _393  and  _394
REMARK  162  A    between atoms: _394  and  _395
REMARK  163  A    between atoms: _400  and  _402
REMARK  164  A    between atoms: _402  and  _403
REMARK  165  A    between atoms: _402  and  _405
REMARK  166  A    between atoms: _405  and  _406
REMARK  167  A    between atoms: _411  and  _413
REMARK  168  A    between atoms: _413  and  _414
REMARK  169  A    between atoms: _413  and  _416
REMARK  170  A    between atoms: _419  and  _421
REMARK  171  A    between atoms: _421  and  _422
REMARK  172  A    between atoms: _421  and  _424
REMARK  173  A    between atoms: _424  and  _425
REMARK  174  A    between atoms: _428  and  _430
REMARK  175  A    between atoms: _430  and  _431
REMARK  176  A    between atoms: _430  and  _433
REMARK  177  A    between atoms: _433  and  _434
REMARK  178  A    between atoms: _437  and  _439
REMARK  179  A    between atoms: _439  and  _440
REMARK  180  A    between atoms: _439  and  _442
REMARK  181  A    between atoms: _442  and  _443
REMARK  182  A    between atoms: _448  and  _450
REMARK  183  A    between atoms: _450  and  _451
REMARK  184  A    between atoms: _450  and  _453
REMARK  185  A    between atoms: _453  and  _454
REMARK  186  A    between atoms: _454  and  _455
REMARK  187  A    between atoms: _455  and  _456
REMARK  188  A    between atoms: _456  and  _457
REMARK  189  A    between atoms: _461  and  _463
REMARK  190  A    between atoms: _463  and  _464
REMARK  191  A    between atoms: _463  and  _466
REMARK  192  A    between atoms: _466  and  _467
REMARK  193  A    between atoms: _470  and  _472
REMARK  194  A    between atoms: _472  and  _473
REMARK  195  A    between atoms: _472  and  _475
REMARK  196  A    between atoms: _475  and  _476
REMARK  197  A    between atoms: _479  and  _481
REMARK  198  A    between atoms: _481  and  _482
REMARK  199  A    between atoms: _481  and  _484
REMARK  200  A    between atoms: _484  and  _485
REMARK  201  A    between atoms: _488  and  _490
REMARK  202  A    between atoms: _490  and  _491
REMARK  203  A    between atoms: _490  and  _493
REMARK  204  A    between atoms: _493  and  _494
REMARK  205  A    between atoms: _497  and  _499
REMARK  206  A    between atoms: _499  and  _500
REMARK  207  A    between atoms: _502  and  _504
REMARK  208  A    between atoms: _504  and  _505
REMARK  209  A    between atoms: _504  and  _507
REMARK  210  A    between atoms: _507  and  _508
REMARK  211  A    between atoms: _513  and  _515
REMARK  212  A    between atoms: _515  and  _516
REMARK  213  A    between atoms: _515  and  _518
REMARK  214  A    between atoms: _518  and  _519
REMARK  215  A    between atoms: _519  and  _520
REMARK  216  A    between atoms: _523  and  _525
REMARK  217  A    between atoms: _525  and  _526
REMARK  218  A    between atoms: _525  and  _528
REMARK  219  A    between atoms: _528  and  _529
REMARK  220  A    between atoms: _534  and  _536
REMARK  221  A    between atoms: _536  and  _537
REMARK  222  A    between atoms: _536  and  _539
REMARK  223  A    between atoms: _539  and  _540
REMARK  224  A    between atoms: _540  and  _541
REMARK  225  A    between atoms: _543  and  _545
REMARK  226  A    between atoms: _545  and  _546
REMARK  227  A    between atoms: _545  and  _548
REMARK  228  A    between atoms: _548  and  _549
REMARK  229  A    between atoms: _549  and  _550
REMARK  230  A    between atoms: _550  and  _551
REMARK  231  A    between atoms: _560  and  _562
REMARK  232  A    between atoms: _562  and  _563
REMARK  233  A    between atoms: _562  and  _565
REMARK  234  A    between atoms: _565  and  _566
REMARK  235  A    between atoms: _569  and  _571
REMARK  236  A    between atoms: _571  and  _572
REMARK  237  A    between atoms: _575  and  _577
REMARK  238  A    between atoms: _577  and  _578
REMARK  239  A    between atoms: _577  and  _580
REMARK  240  A    between atoms: _580  and  _581
REMARK  241  A    between atoms: _587  and  _589
REMARK  242  A    between atoms: _589  and  _590
REMARK  243  A    between atoms: _589  and  _592
REMARK  244  A    between atoms: _592  and  _593
REMARK  245  A    between atoms: _593  and  _594
REMARK  246  A    between atoms: _597  and  _599
REMARK  247  A    between atoms: _599  and  _600
REMARK  248  A    between atoms: _599  and  _602
REMARK  249  A    between atoms: _602  and  _603
REMARK  250  A    between atoms: _605  and  _607
REMARK  251  A    between atoms: _607  and  _608
REMARK  252  A    between atoms: _607  and  _610
REMARK  253  A    between atoms: _610  and  _611
REMARK  254  A    between atoms: _621  and  _623
REMARK  255  A    between atoms: _623  and  _624
REMARK  256  A    between atoms: _623  and  _626
REMARK  257  A    between atoms: _626  and  _627
REMARK  258  A    between atoms: _629  and  _631
REMARK  259  A    between atoms: _631  and  _632
REMARK  260  A    between atoms: _631  and  _634
REMARK  261  A    between atoms: _637  and  _639
REMARK  262  A    between atoms: _639  and  _640
REMARK  263  A    between atoms: _639  and  _642
REMARK  264  A    between atoms: _642  and  _643
REMARK  265  A    between atoms: _646  and  _648
REMARK  266  A    between atoms: _648  and  _649
REMARK  267  A    between atoms: _648  and  _651
REMARK  268  A    between atoms: _651  and  _652
REMARK                            x       y       z     vdW  Elec       q    Type
REMARK                         _______ _______ _______ _____ _____    ______ ____
ROOT
ATOM      1  C   GLN A   3       0.435  -6.019  -7.795  0.00  0.00    +0.241 C 
ATOM      2  N   THR A   4       0.215  -7.201  -8.355  0.00  0.00    -0.295 N 
ATOM      3  H   THR A   4       0.019  -8.018  -7.743  0.00  0.00    +0.150 HD
ATOM      4  O   GLN A   3       0.756  -5.016  -8.441  0.00  0.00    -0.273 OA
ENDROOT
BRANCH   2   5
ATOM      5  CA  THR A   4       0.238  -7.391  -9.782  0.00  0.00    +0.176 C 
BRANCH   5   6
ATOM      6  C   THR A   4      -0.789  -6.495 -10.478  0.00  0.00    +0.243 C 
ATOM      7  N   ASN A   5      -2.010  -6.464  -9.948  0.00  0.00    -0.297 N 
ATOM      8  H   ASN A   5      -2.228  -7.090  -9.147  0.00  0.00    +0.150 HD
ATOM      9  O   THR A   4      -0.482  -5.879 -11.491  0.00  0.00    -0.273 OA
BRANCH   7  10
ATOM     10  CA  ASN A   5      -3.057  -5.573 -10.460  0.00  0.00    +0.158 C 
BRANCH  10  11
ATOM     11  C   ASN A   5      -2.620  -4.116 -10.464  0.00  0.00    +0.241 C 
ATOM     12  N   VAL A   6      -2.081  -3.671  -9.328  0.00  0.00    -0.297 N 
ATOM     13  H   VAL A   6      -1.957  -4.333  -8.536  0.00  0.00    +0.150 HD
ATOM     14  O   ASN A   5      -2.812  -3.401 -11.445  0.00  0.00    -0.273 OA
BRANCH  12  15
ATOM     15  CA  VAL A   6      -1.664  -2.295  -9.165  0.00  0.00    +0.149 C 
BRANCH  15  16
ATOM     16  C   VAL A   6      -0.552  -1.928 -10.158  0.00  0.00    +0.241 C 
ATOM     17  N   ILE A   7       0.353  -2.864 -10.403  0.00  0.00    -0.298 N 
ATOM     18  H   ILE A   7       0.293  -3.778  -9.911  0.00  0.00    +0.150 HD
ATOM     19  O   VAL A   6      -0.518  -0.819 -10.695  0.00  0.00    -0.273 OA
BRANCH  17  20
ATOM     20  CA  ILE A   7       1.427  -2.629 -11.349  0.00  0.00    +0.137 C 
BRANCH  20  21
ATOM     21  CB  ILE A   7       2.461  -3.745 -11.302  0.00  0.00    +0.026 C 
ATOM     22  CG2 ILE A   7       3.381  -3.667 -12.505  0.00  0.00    +0.002 C 
BRANCH  21  23
ATOM     23  CG1 ILE A   7       3.268  -3.648  -9.988  0.00  0.00    +0.002 C 
ATOM     24  CD1 ILE A   7       4.183  -4.832  -9.744  0.00  0.00    +0.000 C 
ENDBRANCH  21  23
ENDBRANCH  20  21
BRANCH  20  25
ATOM     25  C   ILE A   7       0.872  -2.482 -12.771  0.00  0.00    +0.227 C 
ATOM     26  O   ILE A   7       1.174  -1.522 -13.463  0.00  0.00    -0.286 OA
ENDBRANCH  20  25
ENDBRANCH  17  20
ENDBRANCH  15  16
BRANCH  15  27
ATOM     27  CB  VAL A   6      -1.196  -2.046  -7.723  0.00  0.00    +0.027 C 
ATOM     28  CG2 VAL A   6      -2.423  -2.120  -6.739  0.00  0.00    +0.002 C 
ATOM     29  CG1 VAL A   6      -0.456  -0.718  -7.607  0.00  0.00    +0.002 C 
ENDBRANCH  15  27
ENDBRANCH  12  15
ENDBRANCH  10  11
BRANCH  10  30
ATOM     30  CB  ASN A   5      -4.308  -5.683  -9.603  0.00  0.00    +0.114 C 
BRANCH  30  31
ATOM     31  CG  ASN A   5      -5.218  -6.751 -10.066  0.00  0.00    +0.222 C 
ATOM     32  ND2 ASN A   5      -6.230  -7.049  -9.271  0.00  0.00    -0.329 N 
ATOM     33 HD21 ASN A   5      -6.352  -6.542  -8.371  0.00  0.00    +0.145 HD
ATOM     34 HD22 ASN A   5      -6.905  -7.791  -9.545  0.00  0.00    +0.145 HD
ATOM     35  OD1 ASN A   5      -5.028  -7.311 -11.127  0.00  0.00    -0.275 OA
ENDBRANCH  30  31
ENDBRANCH  10  30
ENDBRANCH   7  10
ENDBRANCH   5   6
BRANCH   5  36
ATOM     36  CB  THR A   4      -0.032  -8.854 -10.139  0.00  0.00    +0.137 C 
ATOM     37  CG2 THR A   4      -0.172  -9.041 -11.674  0.00  0.00    +0.034 C 
BRANCH  36  38
ATOM     38  OG1 THR A   4       1.044  -9.664  -9.649  0.00  0.00    -0.382 OA
ATOM     39  HG1 THR A   4       1.107  -9.567  -8.666  0.00  0.00    +0.210 HD
ENDBRANCH  36  38
ENDBRANCH   5  36
ENDBRANCH   2   5
BRANCH   1  40
ATOM     40  CA  GLN A   3       0.257  -5.961  -6.264  0.00  0.00    +0.149 C 
BRANCH  40  42
ATOM     41  C   ALA A   2      -2.167  -6.285  -6.220  0.00  0.00    +0.241 C 
ATOM     42  N   GLN A   3      -0.948  -6.690  -5.861  0.00  0.00    -0.297 N 
ATOM     43  H   GLN A   3      -0.850  -7.547  -5.279  0.00  0.00    +0.150 HD
ATOM     44  O   ALA A   2      -2.358  -5.299  -6.914  0.00  0.00    -0.273 OA
BRANCH  41  45
ATOM     45  CA  ALA A   2      -3.343  -7.119  -5.701  0.00  0.00    +0.149 C 
ATOM     46  CB  ALA A   2      -3.693  -6.721  -4.242  0.00  0.00    +0.031 C 
BRANCH  45  48
ATOM     47  C   ARG A   1      -2.810  -9.144  -6.961  0.00  0.00    +0.238 C 
ATOM     48  N   ALA A   2      -3.021  -8.539  -5.785  0.00  0.00    -0.297 N 
ATOM     49  H   ALA A   2      -2.954  -9.096  -4.909  0.00  0.00    +0.150 HD
ATOM     50  O   ARG A   1      -2.856  -8.550  -8.036  0.00  0.00    -0.274 OA
BRANCH  47  51
ATOM     51  CA  ARG A   1      -2.504 -10.635  -6.917  0.00  0.00    +0.145 C 
BRANCH  51  52
ATOM     52  N   ARG A   1      -1.553 -10.931  -5.872  0.00  0.00    -0.238 NA
ATOM     53  H   ARG A   1      -1.823 -11.603  -5.125  0.00  0.00    +0.142 HD
ENDBRANCH  51  52
BRANCH  51  54
ATOM     54  CB  ARG A   1      -3.789 -11.428  -6.685  0.00  0.00    +0.030 C 
BRANCH  54  55
ATOM     55  CG  ARG A   1      -4.853 -11.248  -7.759  0.00  0.00    +0.045 C 
BRANCH  55  56
ATOM     56  CD  ARG A   1      -5.963 -12.286  -7.581  0.00  0.00    +0.174 C 
BRANCH  56  57
ATOM     57  NE  ARG A   1      -5.424 -13.654  -7.504  0.00  0.00    -0.265 N 
ATOM     58  CZ  ARG A   1      -5.454 -14.426  -6.415  0.00  0.00    +0.342 C 
ATOM     59  NH2 ARG A   1      -6.013 -13.985  -5.291  0.00  0.00    -0.292 N 
ATOM     60 HH21 ARG A   1      -6.032 -14.592  -4.447  0.00  0.00    +0.255 HD
ATOM     61 HH22 ARG A   1      -6.430 -13.033  -5.257  0.00  0.00    +0.255 HD
ATOM     62  NH1 ARG A   1      -4.933 -15.650  -6.456  0.00  0.00    -0.292 N 
ATOM     63 HH11 ARG A   1      -4.955 -16.253  -5.609  0.00  0.00    +0.255 HD
ATOM     64 HH12 ARG A   1      -4.504 -16.003  -7.335  0.00  0.00    +0.255 HD
ATOM     65  HE  ARG A   1      -4.987 -14.048  -8.362  0.00  0.00    +0.259 HD
ENDBRANCH  56  57
ENDBRANCH  55  56
ENDBRANCH  54  55
ENDBRANCH  51  54
ENDBRANCH  47  51
ENDBRANCH  45  48
ENDBRANCH  41  45
ENDBRANCH  40  42
BRANCH  40  66
ATOM     66  CB  GLN A   3       1.489  -6.538  -5.547  0.00  0.00    +0.039 C 
BRANCH  66  67
ATOM     67  CG  GLN A   3       1.515  -6.230  -4.059  0.00  0.00    +0.087 C 
BRANCH  67  68
ATOM     68  CD  GLN A   3       2.543  -7.018  -3.329  0.00  0.00    +0.219 C 
ATOM     69  NE2 GLN A   3       2.853  -6.603  -2.069  0.00  0.00    -0.329 N 
ATOM     70 HE21 GLN A   3       3.552  -7.128  -1.506  0.00  0.00    +0.145 HD
ATOM     71 HE22 GLN A   3       2.391  -5.761  -1.670  0.00  0.00    +0.145 HD
ATOM     72  OE1 GLN A   3       3.062  -8.014  -3.855  0.00  0.00    -0.275 OA
ENDBRANCH  67  68
ENDBRANCH  66  67
ENDBRANCH  40  66
ENDBRANCH   1  40
TORSDOF 28
REMARK  Name = ../refined-set-2016/3f8c/3f8c_pocket.pdb
REMARK  268 active torsions:
REMARK  status: ('A' for Active; 'I' for Inactive)
REMARK    1  A    between atoms: _1  and  _5
REMARK    2  A    between atoms: _5  and  _6
REMARK    3  A    between atoms: _5  and  _8
REMARK    4  A    between atoms: _8  and  _9
REMARK    5  A    between atoms: _9  and  _10
REMARK    6  A    between atoms: _14  and  _15
REMARK    7  A    between atoms: _20  and  _22
REMARK    8  A    between atoms: _22  and  _23
REMARK    9  A    between atoms: _22  and  _25
REMARK   10  A    between atoms: _25  and  _26
REMARK   11  A    between atoms: _26  and  _27
REMARK   12  A    between atoms: _29  and  _31
REMARK   13  A    between atoms: _31  and  _32
REMARK   14  A    between atoms: _31  and  _34
REMARK   15  A    between atoms: _34  and  _35
REMARK   16  A    between atoms: _35  and  _36
REMARK   17  A    between atoms: _36  and  _37
REMARK   18  A    between atoms: _46  and  _48
REMARK   19  A    between atoms: _48  and  _49
REMARK   20  A    between atoms: _52  and  _54
REMARK   21  A    between atoms: _54  and  _55
REMARK   22  A    between atoms: _54  and  _57
REMARK   23  A    between atoms: _57  and  _58
REMARK   24  A    between atoms: _58  and  _59
REMARK   25  A    between atoms: _64  and  _66
REMARK   26  A    between atoms: _66  and  _67
REMARK   27  A    between atoms: _66  and  _69
REMARK   28  A    between atoms: _69  and  _70
REMARK   29  A    between atoms: _73  and  _75
REMARK   30  A    between atoms: _75  and  _76
REMARK   31  A    between atoms: _75  and  _78
REMARK   32  A    between atoms: _78  and  _79
REMARK   33  A    between atoms: _84  and  _86
REMARK   34  A    between atoms: _86  and  _87
REMARK   35  A    between atoms: _86  and  _89
REMARK   36  A    between atoms: _92  and  _94
REMARK   37  A    between atoms: _94  and  _95
REMARK   38  A    between atoms: _94  and  _97
REMARK   39  A    between atoms: _97  and  _98
REMARK   40  A    between atoms: _101  and  _103
REMARK   41  A    between atoms: _103  and  _104
REMARK   42  A    between atoms: _103  and  _106
REMARK   43  A    between atoms: _106  and  _107
REMARK   44  A    between atoms: _110  and  _112
REMARK   45  A    between atoms: _112  and  _113
REMARK   46  A    between atoms: _112  and  _115
REMARK   47  A    between atoms: _115  and  _116
REMARK   48  A    between atoms: _121  and  _123
REMARK   49  A    between atoms: _123  and  _124
REMARK   50  A    between atoms: _123  and  _126
REMARK   51  A    between atoms: _126  and  _127
REMARK   52  A    between atoms: _127  and  _128
REMARK   53  A    between atoms: _128  and  _129
REMARK   54  A    between atoms: _129  and  _130
REMARK   55  A    between atoms: _134  and  _136
REMARK   56  A    between atoms: _136  and  _137
REMARK   57  A    between atoms: _136  and  _139
REMARK   58  A    between atoms: _139  and  _140
REMARK   59  A    between atoms: _140  and  _141
REMARK   60  A    between atoms: _141  and  _142
REMARK   61  A    between atoms: _151  and  _153
REMARK   62  A    between atoms: _153  and  _154
REMARK   63  A    between atoms: _153  and  _156
REMARK   64  A    between atoms: _156  and  _157
REMARK   65  A    between atoms: _160  and  _162
REMARK   66  A    between atoms: _162  and  _163
REMARK   67  A    between atoms: _162  and  _165
REMARK   68  A    between atoms: _165  and  _166
REMARK   69  A    between atoms: _169  and  _171
REMARK   70  A    between atoms: _171  and  _172
REMARK   71  A    between atoms: _171  and  _174
REMARK   72  A    between atoms: _174  and  _175
REMARK   73  A    between atoms: _178  and  _180
REMARK   74  A    between atoms: _180  and  _181
REMARK   75  A    between atoms: _180  and  _183
REMARK   76  A    between atoms: _183  and  _184
REMARK   77  A    between atoms: _187  and  _189
REMARK   78  A    between atoms: _189  and  _190
REMARK   79  A    between atoms: _189  and  _192
REMARK   80  A    between atoms: _192  and  _193
REMARK   81  A    between atoms: _196  and  _198
REMARK   82  A    between atoms: _198  and  _199
REMARK   83  A    between atoms: _201  and  _203
REMARK   84  A    between atoms: _203  and  _204
REMARK   85  A    between atoms: _203  and  _206
REMARK   86  A    between atoms: _206  and  _207
REMARK   87  A    between atoms: _212  and  _214
REMARK   88  A    between atoms: _214  and  _215
REMARK   89  A    between atoms: _214  and  _217
REMARK   90  A    between atoms: _217  and  _218
REMARK   91  A    between atoms: _218  and  _219
REMARK   92  A    between atoms: _222  and  _224
REMARK   93  A    between atoms: _224  and  _225
REMARK   94  A    between atoms: _224  and  _227
REMARK   95  A    between atoms: _227  and  _228
REMARK   96  A    between atoms: _233  and  _235
REMARK   97  A    between atoms: _235  and  _236
REMARK   98  A    between atoms: _235  and  _238
REMARK   99  A    between atoms: _238  and  _239
REMARK  100  A    between atoms: _239  and  _240
REMARK  101  A    between atoms: _242  and  _244
REMARK  102  A    between atoms: _244  and  _245
REMARK  103  A    between atoms: _244  and  _247
REMARK  104  A    between atoms: _247  and  _248
REMARK  105  A    between atoms: _248  and  _249
REMARK  106  A    between atoms: _249  and  _250
REMARK  107  A    between atoms: _259  and  _261
REMARK  108  A    between atoms: _261  and  _262
REMARK  109  A    between atoms: _261  and  _264
REMARK  110  A    between atoms: _264  and  _265
REMARK  111  A    between atoms: _268  and  _270
REMARK  112  A    between atoms: _270  and  _271
REMARK  113  A    between atoms: _274  and  _276
REMARK  114  A    between atoms: _276  and  _277
REMARK  115  A    between atoms: _276  and  _279
REMARK  116  A    between atoms: _279  and  _280
REMARK  117  A    between atoms: _286  and  _288
REMARK  118  A    between atoms: _288  and  _289
REMARK  119  A    between atoms: _288  and  _291
REMARK  120  A    between atoms: _291  and  _292
REMARK  121  A    between atoms: _292  and  _293
REMARK  122  A    between atoms: _296  and  _298
REMARK  123  A    between atoms: _298  and  _299
REMARK  124  A    between atoms: _298  and  _301
REMARK  125  A    between atoms: _301  and  _302
REMARK  126  A    between atoms: _304  and  _306
REMARK  127  A    between atoms: _306  and  _307
REMARK  128  A    between atoms: _306  and  _309
REMARK  129  A    between atoms: _309  and  _310
REMARK  130  A    between atoms: _320  and  _322
REMARK  131  A    between atoms: _322  and  _323
REMARK  132  A    between atoms: _322  and  _325
REMARK  133  A    between atoms: _325  and  _326
REMARK  134  A    between atoms: _328  and  _330
REMARK  135  A    between atoms: _330  and  _331
REMARK  136  A    between atoms: _330  and  _333
REMARK  137  A    between atoms: _336  and  _338
REMARK  138  A    between atoms: _338  and  _339
REMARK  139  A    between atoms: _338  and  _341
REMARK  140  A    between atoms: _341  and  _342
REMARK  141  A    between atoms: _345  and  _347
REMARK  142  A    between atoms: _347  and  _348
REMARK  143  A    between atoms: _347  and  _350
REMARK  144  A    between atoms: _350  and  _351
REMARK  145  A    between atoms: _354  and  _358
REMARK  146  A    between atoms: _358  and  _359
REMARK  147  A    between atoms: _358  and  _361
REMARK  148  A    between atoms: _361  and  _362
REMARK  149  A    between atoms: _362  and  _363
REMARK  150  A    between atoms: _367  and  _368
REMARK  151  A    between atoms: _373  and  _375
REMARK  152  A    between atoms: _375  and  _376
REMARK  153  A    between atoms: _375  and  _378
REMARK  154  A    between atoms: _378  and  _379
REMARK  155  A    between atoms: _379  and  _380
REMARK  156  A    between atoms: _382  and  _384
REMARK  157  A    between atoms: _384  and  _385
REMARK  158  A    between atoms: _388  and  _390
REMARK  159  A    between atoms: _390  and  _391
REMARK  160  A    between atoms: _390  and  _393
REMARK  161  A    between atoms: _393  and  _394
REMARK  162  A    between atoms: _394  and  _395
REMARK  163  A    between atoms: _400  and  _402
REMARK  164  A    between atoms: _402  and  _403
REMARK  165  A    between atoms: _402  and  _405
REMARK  166  A    between atoms: _405  and  _406
REMARK  167  A    between atoms: _411  and  _413
REMARK  168  A    between atoms: _413  and  _414
REMARK  169  A    between atoms: _413  and  _416
REMARK  170  A    between atoms: _419  and  _421
REMARK  171  A    between atoms: _421  and  _422
REMARK  172  A    between atoms: _421  and  _424
REMARK  173  A    between atoms: _424  and  _425
REMARK  174  A    between atoms: _428  and  _430
REMARK  175  A    between atoms: _430  and  _431
REMARK  176  A    between atoms: _430  and  _433
REMARK  177  A    between atoms: _433  and  _434
REMARK  178  A    between atoms: _437  and  _439
REMARK  179  A    between atoms: _439  and  _440
REMARK  180  A    between atoms: _439  and  _442
REMARK  181  A    between atoms: _442  and  _443
REMARK  182  A    between atoms: _448  and  _450
REMARK  183  A    between atoms: _450  and  _451
REMARK  184  A    between atoms: _450  and  _453
REMARK  185  A    between atoms: _453  and  _454
REMARK  186  A    between atoms: _454  and  _455
REMARK  187  A    between atoms: _455  and  _456
REMARK  188  A    between atoms: _456  and  _457
REMARK  189  A    between atoms: _461  and  _463
REMARK  190  A    between atoms: _463  and  _464
REMARK  191  A    between atoms: _463  and  _466
REMARK  192  A    between atoms: _466  and  _467
REMARK  193  A    between atoms: _470  and  _472
REMARK  194  A    between atoms: _472  and  _473
REMARK  195  A    between atoms: _472  and  _475
REMARK  196  A    between atoms: _475  and  _476
REMARK  197  A    between atoms: _479  and  _481
REMARK  198  A    between atoms: _481  and  _482
REMARK  199  A    between atoms: _481  and  _484
REMARK  200  A    between atoms: _484  and  _485
REMARK  201  A    between atoms: _488  and  _490
REMARK  202  A    between atoms: _490  and  _491
REMARK  203  A    between atoms: _490  and  _493
REMARK  204  A    between atoms: _493  and  _494
REMARK  205  A    between atoms: _497  and  _499
REMARK  206  A    between atoms: _499  and  _500
REMARK  207  A    between atoms: _502  and  _504
REMARK  208  A    between atoms: _504  and  _505
REMARK  209  A    between atoms: _504  and  _507
REMARK  210  A    between atoms: _507  and  _508
REMARK  211  A    between atoms: _513  and  _515
REMARK  212  A    between atoms: _515  and  _516
REMARK  213  A    between atoms: _515  and  _518
REMARK  214  A    between atoms: _518  and  _519
REMARK  215  A    between atoms: _519  and  _520
REMARK  216  A    between atoms: _523  and  _525
REMARK  217  A    between atoms: _525  and  _526
REMARK  218  A    between atoms: _525  and  _528
REMARK  219  A    between atoms: _528  and  _529
REMARK  220  A    between atoms: _534  and  _536
REMARK  221  A    between atoms: _536  and  _537
REMARK  222  A    between atoms: _536  and  _539
REMARK  223  A    between atoms: _539  and  _540
REMARK  224  A    between atoms: _540  and  _541
REMARK  225  A    between atoms: _543  and  _545
REMARK  226  A    between atoms: _545  and  _546
REMARK  227  A    between atoms: _545  and  _548
REMARK  228  A    between atoms: _548  and  _549
REMARK  229  A    between atoms: _549  and  _550
REMARK  230  A    between atoms: _550  and  _551
REMARK  231  A    between atoms: _560  and  _562
REMARK  232  A    between atoms: _562  and  _563
REMARK  233  A    between atoms: _562  and  _565
REMARK  234  A    between atoms: _565  and  _566
REMARK  235  A    between atoms: _569  and  _571
REMARK  236  A    between atoms: _571  and  _572
REMARK  237  A    between atoms: _575  and  _577
REMARK  238  A    between atoms: _577  and  _578
REMARK  239  A    between atoms: _577  and  _580
REMARK  240  A    between atoms: _580  and  _581
REMARK  241  A    between atoms: _587  and  _589
REMARK  242  A    between atoms: _589  and  _590
REMARK  243  A    between atoms: _589  and  _592
REMARK  244  A    between atoms: _592  and  _593
REMARK  245  A    between atoms: _593  and  _594
REMARK  246  A    between atoms: _597  and  _599
REMARK  247  A    between atoms: _599  and  _600
REMARK  248  A    between atoms: _599  and  _602
REMARK  249  A    between atoms: _602  and  _603
REMARK  250  A    between atoms: _605  and  _607
REMARK  251  A    between atoms: _607  and  _608
REMARK  252  A    between atoms: _607  and  _610
REMARK  253  A    between atoms: _610  and  _611
REMARK  254  A    between atoms: _621  and  _623
REMARK  255  A    between atoms: _623  and  _624
REMARK  256  A    between atoms: _623  and  _626
REMARK  257  A    between atoms: _626  and  _627
REMARK  258  A    between atoms: _629  and  _631
REMARK  259  A    between atoms: _631  and  _632
REMARK  260  A    between atoms: _631  and  _634
REMARK  261  A    between atoms: _637  and  _639
REMARK  262  A    between atoms: _639  and  _640
REMARK  263  A    between atoms: _639  and  _642
REMARK  264  A    between atoms: _642  and  _643
REMARK  265  A    between atoms: _646  and  _648
REMARK  266  A    between atoms: _648  and  _649
REMARK  267  A    between atoms: _648  and  _651
REMARK  268  A    between atoms: _651  and  _652
REMARK                            x       y       z     vdW  Elec       q    Type
REMARK                         _______ _______ _______ _____ _____    ______ ____
ROOT
ATOM      1  C   LEU A   1      -2.163   0.719 -13.941  0.00  0.00    +0.238 C 
ATOM      2  N   ASN A   2      -0.976   0.680 -13.343  0.00  0.00    -0.298 N 
ATOM      3  H   ASN A   2      -0.721  -0.138 -12.753  0.00  0.00    +0.150 HD
ATOM      4  O   LEU A   1      -2.549   1.689 -14.597  0.00  0.00    -0.274 OA
ENDROOT
BRANCH   1   5
ATOM      5  CA  LEU A   1      -3.037  -0.520 -13.809  0.00  0.00    +0.145 C 
BRANCH   5   6
ATOM      6  N   LEU A   1      -2.215  -1.717 -13.698  0.00  0.00    -0.238 NA
ATOM      7  H   LEU A   1      -2.234  -2.271 -12.818  0.00  0.00    +0.142 HD
ENDBRANCH   5   6
BRANCH   5   8
ATOM      8  CB  LEU A   1      -3.992  -0.386 -12.614  0.00  0.00    +0.026 C 
BRANCH   8   9
ATOM      9  CG  LEU A   1      -5.090  -1.462 -12.587  0.00  0.00    +0.002 C 
ATOM     10  CD2 LEU A   1      -5.850  -1.398 -11.270  0.00  0.00    +0.000 C 
ATOM     11  CD1 LEU A   1      -6.044  -1.291 -13.750  0.00  0.00    +0.000 C 
ENDBRANCH   8   9
ENDBRANCH   5   8
ENDBRANCH   1   5
BRANCH   2  12
ATOM     12  CA  ASN A   2      -0.030   1.778 -13.510  0.00  0.00    +0.146 C 
BRANCH  12  13
ATOM     13  C   ASN A   2       0.658   1.796 -14.862  0.00  0.00    +0.227 C 
ATOM     14  O   ASN A   2       1.072   2.842 -15.339  0.00  0.00    -0.286 OA
ENDBRANCH  12  13
BRANCH  12  15
ATOM     15  CB  ASN A   2       0.977   1.840 -12.366  0.00  0.00    +0.112 C 
BRANCH  15  16
ATOM     16  CG  ASN A   2       0.437   2.585 -11.175  0.00  0.00    +0.222 C 
ATOM     17  ND2 ASN A   2      -0.140   1.850 -10.228  0.00  0.00    -0.329 N 
ATOM     18 HD21 ASN A   2      -0.562   2.311  -9.397  0.00  0.00    +0.145 HD
ATOM     19 HD22 ASN A   2      -0.169   0.814 -10.319  0.00  0.00    +0.145 HD
ATOM     20  OD1 ASN A   2       0.498   3.811 -11.117  0.00  0.00    -0.275 OA
ENDBRANCH  15  16
ENDBRANCH  12  15
ENDBRANCH   2  12
TORSDOF 8
REMARK  Name = ../refined-set-2016/3f8c/3f8c_pocket.pdb
REMARK  268 active torsions:
REMARK  status: ('A' for Active; 'I' for Inactive)
REMARK    1  A    between atoms: _1  and  _5
REMARK    2  A    between atoms: _5  and  _6
REMARK    3  A    between atoms: _5  and  _8
REMARK    4  A    between atoms: _8  and  _9
REMARK    5  A    between atoms: _9  and  _10
REMARK    6  A    between atoms: _14  and  _15
REMARK    7  A    between atoms: _20  and  _22
REMARK    8  A    between atoms: _22  and  _23
REMARK    9  A    between atoms: _22  and  _25
REMARK   10  A    between atoms: _25  and  _26
REMARK   11  A    between atoms: _26  and  _27
REMARK   12  A    between atoms: _29  and  _31
REMARK   13  A    between atoms: _31  and  _32
REMARK   14  A    between atoms: _31  and  _34
REMARK   15  A    between atoms: _34  and  _35
REMARK   16  A    between atoms: _35  and  _36
REMARK   17  A    between atoms: _36  and  _37
REMARK   18  A    between atoms: _46  and  _48
REMARK   19  A    between atoms: _48  and  _49
REMARK   20  A    between atoms: _52  and  _54
REMARK   21  A    between atoms: _54  and  _55
REMARK   22  A    between atoms: _54  and  _57
REMARK   23  A    between atoms: _57  and  _58
REMARK   24  A    between atoms: _58  and  _59
REMARK   25  A    between atoms: _64  and  _66
REMARK   26  A    between atoms: _66  and  _67
REMARK   27  A    between atoms: _66  and  _69
REMARK   28  A    between atoms: _69  and  _70
REMARK   29  A    between atoms: _73  and  _75
REMARK   30  A    between atoms: _75  and  _76
REMARK   31  A    between atoms: _75  and  _78
REMARK   32  A    between atoms: _78  and  _79
REMARK   33  A    between atoms: _84  and  _86
REMARK   34  A    between atoms: _86  and  _87
REMARK   35  A    between atoms: _86  and  _89
REMARK   36  A    between atoms: _92  and  _94
REMARK   37  A    between atoms: _94  and  _95
REMARK   38  A    between atoms: _94  and  _97
REMARK   39  A    between atoms: _97  and  _98
REMARK   40  A    between atoms: _101  and  _103
REMARK   41  A    between atoms: _103  and  _104
REMARK   42  A    between atoms: _103  and  _106
REMARK   43  A    between atoms: _106  and  _107
REMARK   44  A    between atoms: _110  and  _112
REMARK   45  A    between atoms: _112  and  _113
REMARK   46  A    between atoms: _112  and  _115
REMARK   47  A    between atoms: _115  and  _116
REMARK   48  A    between atoms: _121  and  _123
REMARK   49  A    between atoms: _123  and  _124
REMARK   50  A    between atoms: _123  and  _126
REMARK   51  A    between atoms: _126  and  _127
REMARK   52  A    between atoms: _127  and  _128
REMARK   53  A    between atoms: _128  and  _129
REMARK   54  A    between atoms: _129  and  _130
REMARK   55  A    between atoms: _134  and  _136
REMARK   56  A    between atoms: _136  and  _137
REMARK   57  A    between atoms: _136  and  _139
REMARK   58  A    between atoms: _139  and  _140
REMARK   59  A    between atoms: _140  and  _141
REMARK   60  A    between atoms: _141  and  _142
REMARK   61  A    between atoms: _151  and  _153
REMARK   62  A    between atoms: _153  and  _154
REMARK   63  A    between atoms: _153  and  _156
REMARK   64  A    between atoms: _156  and  _157
REMARK   65  A    between atoms: _160  and  _162
REMARK   66  A    between atoms: _162  and  _163
REMARK   67  A    between atoms: _162  and  _165
REMARK   68  A    between atoms: _165  and  _166
REMARK   69  A    between atoms: _169  and  _171
REMARK   70  A    between atoms: _171  and  _172
REMARK   71  A    between atoms: _171  and  _174
REMARK   72  A    between atoms: _174  and  _175
REMARK   73  A    between atoms: _178  and  _180
REMARK   74  A    between atoms: _180  and  _181
REMARK   75  A    between atoms: _180  and  _183
REMARK   76  A    between atoms: _183  and  _184
REMARK   77  A    between atoms: _187  and  _189
REMARK   78  A    between atoms: _189  and  _190
REMARK   79  A    between atoms: _189  and  _192
REMARK   80  A    between atoms: _192  and  _193
REMARK   81  A    between atoms: _196  and  _198
REMARK   82  A    between atoms: _198  and  _199
REMARK   83  A    between atoms: _201  and  _203
REMARK   84  A    between atoms: _203  and  _204
REMARK   85  A    between atoms: _203  and  _206
REMARK   86  A    between atoms: _206  and  _207
REMARK   87  A    between atoms: _212  and  _214
REMARK   88  A    between atoms: _214  and  _215
REMARK   89  A    between atoms: _214  and  _217
REMARK   90  A    between atoms: _217  and  _218
REMARK   91  A    between atoms: _218  and  _219
REMARK   92  A    between atoms: _222  and  _224
REMARK   93  A    between atoms: _224  and  _225
REMARK   94  A    between atoms: _224  and  _227
REMARK   95  A    between atoms: _227  and  _228
REMARK   96  A    between atoms: _233  and  _235
REMARK   97  A    between atoms: _235  and  _236
REMARK   98  A    between atoms: _235  and  _238
REMARK   99  A    between atoms: _238  and  _239
REMARK  100  A    between atoms: _239  and  _240
REMARK  101  A    between atoms: _242  and  _244
REMARK  102  A    between atoms: _244  and  _245
REMARK  103  A    between atoms: _244  and  _247
REMARK  104  A    between atoms: _247  and  _248
REMARK  105  A    between atoms: _248  and  _249
REMARK  106  A    between atoms: _249  and  _250
REMARK  107  A    between atoms: _259  and  _261
REMARK  108  A    between atoms: _261  and  _262
REMARK  109  A    between atoms: _261  and  _264
REMARK  110  A    between atoms: _264  and  _265
REMARK  111  A    between atoms: _268  and  _270
REMARK  112  A    between atoms: _270  and  _271
REMARK  113  A    between atoms: _274  and  _276
REMARK  114  A    between atoms: _276  and  _277
REMARK  115  A    between atoms: _276  and  _279
REMARK  116  A    between atoms: _279  and  _280
REMARK  117  A    between atoms: _286  and  _288
REMARK  118  A    between atoms: _288  and  _289
REMARK  119  A    between atoms: _288  and  _291
REMARK  120  A    between atoms: _291  and  _292
REMARK  121  A    between atoms: _292  and  _293
REMARK  122  A    between atoms: _296  and  _298
REMARK  123  A    between atoms: _298  and  _299
REMARK  124  A    between atoms: _298  and  _301
REMARK  125  A    between atoms: _301  and  _302
REMARK  126  A    between atoms: _304  and  _306
REMARK  127  A    between atoms: _306  and  _307
REMARK  128  A    between atoms: _306  and  _309
REMARK  129  A    between atoms: _309  and  _310
REMARK  130  A    between atoms: _320  and  _322
REMARK  131  A    between atoms: _322  and  _323
REMARK  132  A    between atoms: _322  and  _325
REMARK  133  A    between atoms: _325  and  _326
REMARK  134  A    between atoms: _328  and  _330
REMARK  135  A    between atoms: _330  and  _331
REMARK  136  A    between atoms: _330  and  _333
REMARK  137  A    between atoms: _336  and  _338
REMARK  138  A    between atoms: _338  and  _339
REMARK  139  A    between atoms: _338  and  _341
REMARK  140  A    between atoms: _341  and  _342
REMARK  141  A    between atoms: _345  and  _347
REMARK  142  A    between atoms: _347  and  _348
REMARK  143  A    between atoms: _347  and  _350
REMARK  144  A    between atoms: _350  and  _351
REMARK  145  A    between atoms: _354  and  _358
REMARK  146  A    between atoms: _358  and  _359
REMARK  147  A    between atoms: _358  and  _361
REMARK  148  A    between atoms: _361  and  _362
REMARK  149  A    between atoms: _362  and  _363
REMARK  150  A    between atoms: _367  and  _368
REMARK  151  A    between atoms: _373  and  _375
REMARK  152  A    between atoms: _375  and  _376
REMARK  153  A    between atoms: _375  and  _378
REMARK  154  A    between atoms: _378  and  _379
REMARK  155  A    between atoms: _379  and  _380
REMARK  156  A    between atoms: _382  and  _384
REMARK  157  A    between atoms: _384  and  _385
REMARK  158  A    between atoms: _388  and  _390
REMARK  159  A    between atoms: _390  and  _391
REMARK  160  A    between atoms: _390  and  _393
REMARK  161  A    between atoms: _393  and  _394
REMARK  162  A    between atoms: _394  and  _395
REMARK  163  A    between atoms: _400  and  _402
REMARK  164  A    between atoms: _402  and  _403
REMARK  165  A    between atoms: _402  and  _405
REMARK  166  A    between atoms: _405  and  _406
REMARK  167  A    between atoms: _411  and  _413
REMARK  168  A    between atoms: _413  and  _414
REMARK  169  A    between atoms: _413  and  _416
REMARK  170  A    between atoms: _419  and  _421
REMARK  171  A    between atoms: _421  and  _422
REMARK  172  A    between atoms: _421  and  _424
REMARK  173  A    between atoms: _424  and  _425
REMARK  174  A    between atoms: _428  and  _430
REMARK  175  A    between atoms: _430  and  _431
REMARK  176  A    between atoms: _430  and  _433
REMARK  177  A    between atoms: _433  and  _434
REMARK  178  A    between atoms: _437  and  _439
REMARK  179  A    between atoms: _439  and  _440
REMARK  180  A    between atoms: _439  and  _442
REMARK  181  A    between atoms: _442  and  _443
REMARK  182  A    between atoms: _448  and  _450
REMARK  183  A    between atoms: _450  and  _451
REMARK  184  A    between atoms: _450  and  _453
REMARK  185  A    between atoms: _453  and  _454
REMARK  186  A    between atoms: _454  and  _455
REMARK  187  A    between atoms: _455  and  _456
REMARK  188  A    between atoms: _456  and  _457
REMARK  189  A    between atoms: _461  and  _463
REMARK  190  A    between atoms: _463  and  _464
REMARK  191  A    between atoms: _463  and  _466
REMARK  192  A    between atoms: _466  and  _467
REMARK  193  A    between atoms: _470  and  _472
REMARK  194  A    between atoms: _472  and  _473
REMARK  195  A    between atoms: _472  and  _475
REMARK  196  A    between atoms: _475  and  _476
REMARK  197  A    between atoms: _479  and  _481
REMARK  198  A    between atoms: _481  and  _482
REMARK  199  A    between atoms: _481  and  _484
REMARK  200  A    between atoms: _484  and  _485
REMARK  201  A    between atoms: _488  and  _490
REMARK  202  A    between atoms: _490  and  _491
REMARK  203  A    between atoms: _490  and  _493
REMARK  204  A    between atoms: _493  and  _494
REMARK  205  A    between atoms: _497  and  _499
REMARK  206  A    between atoms: _499  and  _500
REMARK  207  A    between atoms: _502  and  _504
REMARK  208  A    between atoms: _504  and  _505
REMARK  209  A    between atoms: _504  and  _507
REMARK  210  A    between atoms: _507  and  _508
REMARK  211  A    between atoms: _513  and  _515
REMARK  212  A    between atoms: _515  and  _516
REMARK  213  A    between atoms: _515  and  _518
REMARK  214  A    between atoms: _518  and  _519
REMARK  215  A    between atoms: _519  and  _520
REMARK  216  A    between atoms: _523  and  _525
REMARK  217  A    between atoms: _525  and  _526
REMARK  218  A    between atoms: _525  and  _528
REMARK  219  A    between atoms: _528  and  _529
REMARK  220  A    between atoms: _534  and  _536
REMARK  221  A    between atoms: _536  and  _537
REMARK  222  A    between atoms: _536  and  _539
REMARK  223  A    between atoms: _539  and  _540
REMARK  224  A    between atoms: _540  and  _541
REMARK  225  A    between atoms: _543  and  _545
REMARK  226  A    between atoms: _545  and  _546
REMARK  227  A    between atoms: _545  and  _548
REMARK  228  A    between atoms: _548  and  _549
REMARK  229  A    between atoms: _549  and  _550
REMARK  230  A    between atoms: _550  and  _551
REMARK  231  A    between atoms: _560  and  _562
REMARK  232  A    between atoms: _562  and  _563
REMARK  233  A    between atoms: _562  and  _565
REMARK  234  A    between atoms: _565  and  _566
REMARK  235  A    between atoms: _569  and  _571
REMARK  236  A    between atoms: _571  and  _572
REMARK  237  A    between atoms: _575  and  _577
REMARK  238  A    between atoms: _577  and  _578
REMARK  239  A    between atoms: _577  and  _580
REMARK  240  A    between atoms: _580  and  _581
REMARK  241  A    between atoms: _587  and  _589
REMARK  242  A    between atoms: _589  and  _590
REMARK  243  A    between atoms: _589  and  _592
REMARK  244  A    between atoms: _592  and  _593
REMARK  245  A    between atoms: _593  and  _594
REMARK  246  A    between atoms: _597  and  _599
REMARK  247  A    between atoms: _599  and  _600
REMARK  248  A    between atoms: _599  and  _602
REMARK  249  A    between atoms: _602  and  _603
REMARK  250  A    between atoms: _605  and  _607
REMARK  251  A    between atoms: _607  and  _608
REMARK  252  A    between atoms: _607  and  _610
REMARK  253  A    between atoms: _610  and  _611
REMARK  254  A    between atoms: _621  and  _623
REMARK  255  A    between atoms: _623  and  _624
REMARK  256  A    between atoms: _623  and  _626
REMARK  257  A    between atoms: _626  and  _627
REMARK  258  A    between atoms: _629  and  _631
REMARK  259  A    between atoms: _631  and  _632
REMARK  260  A    between atoms: _631  and  _634
REMARK  261  A    between atoms: _637  and  _639
REMARK  262  A    between atoms: _639  and  _640
REMARK  263  A    between atoms: _639  and  _642
REMARK  264  A    between atoms: _642  and  _643
REMARK  265  A    between atoms: _646  and  _648
REMARK  266  A    between atoms: _648  and  _649
REMARK  267  A    between atoms: _648  and  _651
REMARK  268  A    between atoms: _651  and  _652
REMARK                            x       y       z     vdW  Elec       q    Type
REMARK                         _______ _______ _______ _____ _____    ______ ____
ROOT
ATOM      1  CG  LYS A   1      -1.706   6.404 -14.322  0.00  0.00    -0.000 C 
ENDROOT
BRANCH   1   2
ATOM      2  CB  LYS A   1      -1.749   5.017 -14.835  0.00  0.00    +0.025 C 
BRANCH   2   3
ATOM      3  CA  LYS A   1      -2.052   4.908 -16.328  0.00  0.00    +0.133 C 
BRANCH   3   4
ATOM      4  N   LYS A   1      -2.011   3.528 -16.736  0.00  0.00    -0.239 NA
ATOM      5  H   LYS A   1      -1.759   2.801 -16.037  0.00  0.00    +0.142 HD
ENDBRANCH   3   4
BRANCH   3   6
ATOM      6  C   LYS A   1      -1.048   5.733 -17.143  0.00  0.00    +0.224 C 
ATOM      7  O   LYS A   1      -1.315   6.878 -17.483  0.00  0.00    -0.287 OA
ENDBRANCH   3   6
ENDBRANCH   2   3
ENDBRANCH   1   2
BRANCH   1   8
ATOM      8  CD  LYS A   1      -1.550   6.412 -12.824  0.00  0.00    -0.024 C 
BRANCH   8   9
ATOM      9  CE  LYS A   1      -2.225   7.616 -12.223  0.00  0.00    -0.086 C 
BRANCH   9  10
ATOM     10  NZ  LYS A   1      -2.373   7.470 -10.758  0.00  0.00    +0.380 N 
ATOM     11  HZ1 LYS A   1      -1.433   7.365 -10.325  0.00  0.00    -0.089 HD
ATOM     12  HZ2 LYS A   1      -2.841   8.315 -10.372  0.00  0.00    -0.089 HD
ATOM     13  HZ3 LYS A   1      -2.948   6.628 -10.551  0.00  0.00    -0.089 HD
ENDBRANCH   9  10
ENDBRANCH   8   9
ENDBRANCH   1   8
TORSDOF 7
REMARK  Name = ../refined-set-2016/3f8c/3f8c_pocket.pdb
REMARK  268 active torsions:
REMARK  status: ('A' for Active; 'I' for Inactive)
REMARK    1  A    between atoms: _1  and  _5
REMARK    2  A    between atoms: _5  and  _6
REMARK    3  A    between atoms: _5  and  _8
REMARK    4  A    between atoms: _8  and  _9
REMARK    5  A    between atoms: _9  and  _10
REMARK    6  A    between atoms: _14  and  _15
REMARK    7  A    between atoms: _20  and  _22
REMARK    8  A    between atoms: _22  and  _23
REMARK    9  A    between atoms: _22  and  _25
REMARK   10  A    between atoms: _25  and  _26
REMARK   11  A    between atoms: _26  and  _27
REMARK   12  A    between atoms: _29  and  _31
REMARK   13  A    between atoms: _31  and  _32
REMARK   14  A    between atoms: _31  and  _34
REMARK   15  A    between atoms: _34  and  _35
REMARK   16  A    between atoms: _35  and  _36
REMARK   17  A    between atoms: _36  and  _37
REMARK   18  A    between atoms: _46  and  _48
REMARK   19  A    between atoms: _48  and  _49
REMARK   20  A    between atoms: _52  and  _54
REMARK   21  A    between atoms: _54  and  _55
REMARK   22  A    between atoms: _54  and  _57
REMARK   23  A    between atoms: _57  and  _58
REMARK   24  A    between atoms: _58  and  _59
REMARK   25  A    between atoms: _64  and  _66
REMARK   26  A    between atoms: _66  and  _67
REMARK   27  A    between atoms: _66  and  _69
REMARK   28  A    between atoms: _69  and  _70
REMARK   29  A    between atoms: _73  and  _75
REMARK   30  A    between atoms: _75  and  _76
REMARK   31  A    between atoms: _75  and  _78
REMARK   32  A    between atoms: _78  and  _79
REMARK   33  A    between atoms: _84  and  _86
REMARK   34  A    between atoms: _86  and  _87
REMARK   35  A    between atoms: _86  and  _89
REMARK   36  A    between atoms: _92  and  _94
REMARK   37  A    between atoms: _94  and  _95
REMARK   38  A    between atoms: _94  and  _97
REMARK   39  A    between atoms: _97  and  _98
REMARK   40  A    between atoms: _101  and  _103
REMARK   41  A    between atoms: _103  and  _104
REMARK   42  A    between atoms: _103  and  _106
REMARK   43  A    between atoms: _106  and  _107
REMARK   44  A    between atoms: _110  and  _112
REMARK   45  A    between atoms: _112  and  _113
REMARK   46  A    between atoms: _112  and  _115
REMARK   47  A    between atoms: _115  and  _116
REMARK   48  A    between atoms: _121  and  _123
REMARK   49  A    between atoms: _123  and  _124
REMARK   50  A    between atoms: _123  and  _126
REMARK   51  A    between atoms: _126  and  _127
REMARK   52  A    between atoms: _127  and  _128
REMARK   53  A    between atoms: _128  and  _129
REMARK   54  A    between atoms: _129  and  _130
REMARK   55  A    between atoms: _134  and  _136
REMARK   56  A    between atoms: _136  and  _137
REMARK   57  A    between atoms: _136  and  _139
REMARK   58  A    between atoms: _139  and  _140
REMARK   59  A    between atoms: _140  and  _141
REMARK   60  A    between atoms: _141  and  _142
REMARK   61  A    between atoms: _151  and  _153
REMARK   62  A    between atoms: _153  and  _154
REMARK   63  A    between atoms: _153  and  _156
REMARK   64  A    between atoms: _156  and  _157
REMARK   65  A    between atoms: _160  and  _162
REMARK   66  A    between atoms: _162  and  _163
REMARK   67  A    between atoms: _162  and  _165
REMARK   68  A    between atoms: _165  and  _166
REMARK   69  A    between atoms: _169  and  _171
REMARK   70  A    between atoms: _171  and  _172
REMARK   71  A    between atoms: _171  and  _174
REMARK   72  A    between atoms: _174  and  _175
REMARK   73  A    between atoms: _178  and  _180
REMARK   74  A    between atoms: _180  and  _181
REMARK   75  A    between atoms: _180  and  _183
REMARK   76  A    between atoms: _183  and  _184
REMARK   77  A    between atoms: _187  and  _189
REMARK   78  A    between atoms: _189  and  _190
REMARK   79  A    between atoms: _189  and  _192
REMARK   80  A    between atoms: _192  and  _193
REMARK   81  A    between atoms: _196  and  _198
REMARK   82  A    between atoms: _198  and  _199
REMARK   83  A    between atoms: _201  and  _203
REMARK   84  A    between atoms: _203  and  _204
REMARK   85  A    between atoms: _203  and  _206
REMARK   86  A    between atoms: _206  and  _207
REMARK   87  A    between atoms: _212  and  _214
REMARK   88  A    between atoms: _214  and  _215
REMARK   89  A    between atoms: _214  and  _217
REMARK   90  A    between atoms: _217  and  _218
REMARK   91  A    between atoms: _218  and  _219
REMARK   92  A    between atoms: _222  and  _224
REMARK   93  A    between atoms: _224  and  _225
REMARK   94  A    between atoms: _224  and  _227
REMARK   95  A    between atoms: _227  and  _228
REMARK   96  A    between atoms: _233  and  _235
REMARK   97  A    between atoms: _235  and  _236
REMARK   98  A    between atoms: _235  and  _238
REMARK   99  A    between atoms: _238  and  _239
REMARK  100  A    between atoms: _239  and  _240
REMARK  101  A    between atoms: _242  and  _244
REMARK  102  A    between atoms: _244  and  _245
REMARK  103  A    between atoms: _244  and  _247
REMARK  104  A    between atoms: _247  and  _248
REMARK  105  A    between atoms: _248  and  _249
REMARK  106  A    between atoms: _249  and  _250
REMARK  107  A    between atoms: _259  and  _261
REMARK  108  A    between atoms: _261  and  _262
REMARK  109  A    between atoms: _261  and  _264
REMARK  110  A    between atoms: _264  and  _265
REMARK  111  A    between atoms: _268  and  _270
REMARK  112  A    between atoms: _270  and  _271
REMARK  113  A    between atoms: _274  and  _276
REMARK  114  A    between atoms: _276  and  _277
REMARK  115  A    between atoms: _276  and  _279
REMARK  116  A    between atoms: _279  and  _280
REMARK  117  A    between atoms: _286  and  _288
REMARK  118  A    between atoms: _288  and  _289
REMARK  119  A    between atoms: _288  and  _291
REMARK  120  A    between atoms: _291  and  _292
REMARK  121  A    between atoms: _292  and  _293
REMARK  122  A    between atoms: _296  and  _298
REMARK  123  A    between atoms: _298  and  _299
REMARK  124  A    between atoms: _298  and  _301
REMARK  125  A    between atoms: _301  and  _302
REMARK  126  A    between atoms: _304  and  _306
REMARK  127  A    between atoms: _306  and  _307
REMARK  128  A    between atoms: _306  and  _309
REMARK  129  A    between atoms: _309  and  _310
REMARK  130  A    between atoms: _320  and  _322
REMARK  131  A    between atoms: _322  and  _323
REMARK  132  A    between atoms: _322  and  _325
REMARK  133  A    between atoms: _325  and  _326
REMARK  134  A    between atoms: _328  and  _330
REMARK  135  A    between atoms: _330  and  _331
REMARK  136  A    between atoms: _330  and  _333
REMARK  137  A    between atoms: _336  and  _338
REMARK  138  A    between atoms: _338  and  _339
REMARK  139  A    between atoms: _338  and  _341
REMARK  140  A    between atoms: _341  and  _342
REMARK  141  A    between atoms: _345  and  _347
REMARK  142  A    between atoms: _347  and  _348
REMARK  143  A    between atoms: _347  and  _350
REMARK  144  A    between atoms: _350  and  _351
REMARK  145  A    between atoms: _354  and  _358
REMARK  146  A    between atoms: _358  and  _359
REMARK  147  A    between atoms: _358  and  _361
REMARK  148  A    between atoms: _361  and  _362
REMARK  149  A    between atoms: _362  and  _363
REMARK  150  A    between atoms: _367  and  _368
REMARK  151  A    between atoms: _373  and  _375
REMARK  152  A    between atoms: _375  and  _376
REMARK  153  A    between atoms: _375  and  _378
REMARK  154  A    between atoms: _378  and  _379
REMARK  155  A    between atoms: _379  and  _380
REMARK  156  A    between atoms: _382  and  _384
REMARK  157  A    between atoms: _384  and  _385
REMARK  158  A    between atoms: _388  and  _390
REMARK  159  A    between atoms: _390  and  _391
REMARK  160  A    between atoms: _390  and  _393
REMARK  161  A    between atoms: _393  and  _394
REMARK  162  A    between atoms: _394  and  _395
REMARK  163  A    between atoms: _400  and  _402
REMARK  164  A    between atoms: _402  and  _403
REMARK  165  A    between atoms: _402  and  _405
REMARK  166  A    between atoms: _405  and  _406
REMARK  167  A    between atoms: _411  and  _413
REMARK  168  A    between atoms: _413  and  _414
REMARK  169  A    between atoms: _413  and  _416
REMARK  170  A    between atoms: _419  and  _421
REMARK  171  A    between atoms: _421  and  _422
REMARK  172  A    between atoms: _421  and  _424
REMARK  173  A    between atoms: _424  and  _425
REMARK  174  A    between atoms: _428  and  _430
REMARK  175  A    between atoms: _430  and  _431
REMARK  176  A    between atoms: _430  and  _433
REMARK  177  A    between atoms: _433  and  _434
REMARK  178  A    between atoms: _437  and  _439
REMARK  179  A    between atoms: _439  and  _440
REMARK  180  A    between atoms: _439  and  _442
REMARK  181  A    between atoms: _442  and  _443
REMARK  182  A    between atoms: _448  and  _450
REMARK  183  A    between atoms: _450  and  _451
REMARK  184  A    between atoms: _450  and  _453
REMARK  185  A    between atoms: _453  and  _454
REMARK  186  A    between atoms: _454  and  _455
REMARK  187  A    between atoms: _455  and  _456
REMARK  188  A    between atoms: _456  and  _457
REMARK  189  A    between atoms: _461  and  _463
REMARK  190  A    between atoms: _463  and  _464
REMARK  191  A    between atoms: _463  and  _466
REMARK  192  A    between atoms: _466  and  _467
REMARK  193  A    between atoms: _470  and  _472
REMARK  194  A    between atoms: _472  and  _473
REMARK  195  A    between atoms: _472  and  _475
REMARK  196  A    between atoms: _475  and  _476
REMARK  197  A    between atoms: _479  and  _481
REMARK  198  A    between atoms: _481  and  _482
REMARK  199  A    between atoms: _481  and  _484
REMARK  200  A    between atoms: _484  and  _485
REMARK  201  A    between atoms: _488  and  _490
REMARK  202  A    between atoms: _490  and  _491
REMARK  203  A    between atoms: _490  and  _493
REMARK  204  A    between atoms: _493  and  _494
REMARK  205  A    between atoms: _497  and  _499
REMARK  206  A    between atoms: _499  and  _500
REMARK  207  A    between atoms: _502  and  _504
REMARK  208  A    between atoms: _504  and  _505
REMARK  209  A    between atoms: _504  and  _507
REMARK  210  A    between atoms: _507  and  _508
REMARK  211  A    between atoms: _513  and  _515
REMARK  212  A    between atoms: _515  and  _516
REMARK  213  A    between atoms: _515  and  _518
REMARK  214  A    between atoms: _518  and  _519
REMARK  215  A    between atoms: _519  and  _520
REMARK  216  A    between atoms: _523  and  _525
REMARK  217  A    between atoms: _525  and  _526
REMARK  218  A    between atoms: _525  and  _528
REMARK  219  A    between atoms: _528  and  _529
REMARK  220  A    between atoms: _534  and  _536
REMARK  221  A    between atoms: _536  and  _537
REMARK  222  A    between atoms: _536  and  _539
REMARK  223  A    between atoms: _539  and  _540
REMARK  224  A    between atoms: _540  and  _541
REMARK  225  A    between atoms: _543  and  _545
REMARK  226  A    between atoms: _545  and  _546
REMARK  227  A    between atoms: _545  and  _548
REMARK  228  A    between atoms: _548  and  _549
REMARK  229  A    between atoms: _549  and  _550
REMARK  230  A    between atoms: _550  and  _551
REMARK  231  A    between atoms: _560  and  _562
REMARK  232  A    between atoms: _562  and  _563
REMARK  233  A    between atoms: _562  and  _565
REMARK  234  A    between atoms: _565  and  _566
REMARK  235  A    between atoms: _569  and  _571
REMARK  236  A    between atoms: _571  and  _572
REMARK  237  A    between atoms: _575  and  _577
REMARK  238  A    between atoms: _577  and  _578
REMARK  239  A    between atoms: _577  and  _580
REMARK  240  A    between atoms: _580  and  _581
REMARK  241  A    between atoms: _587  and  _589
REMARK  242  A    between atoms: _589  and  _590
REMARK  243  A    between atoms: _589  and  _592
REMARK  244  A    between atoms: _592  and  _593
REMARK  245  A    between atoms: _593  and  _594
REMARK  246  A    between atoms: _597  and  _599
REMARK  247  A    between atoms: _599  and  _600
REMARK  248  A    between atoms: _599  and  _602
REMARK  249  A    between atoms: _602  and  _603
REMARK  250  A    between atoms: _605  and  _607
REMARK  251  A    between atoms: _607  and  _608
REMARK  252  A    between atoms: _607  and  _610
REMARK  253  A    between atoms: _610  and  _611
REMARK  254  A    between atoms: _621  and  _623
REMARK  255  A    between atoms: _623  and  _624
REMARK  256  A    between atoms: _623  and  _626
REMARK  257  A    between atoms: _626  and  _627
REMARK  258  A    between atoms: _629  and  _631
REMARK  259  A    between atoms: _631  and  _632
REMARK  260  A    between atoms: _631  and  _634
REMARK  261  A    between atoms: _637  and  _639
REMARK  262  A    between atoms: _639  and  _640
REMARK  263  A    between atoms: _639  and  _642
REMARK  264  A    between atoms: _642  and  _643
REMARK  265  A    between atoms: _646  and  _648
REMARK  266  A    between atoms: _648  and  _649
REMARK  267  A    between atoms: _648  and  _651
REMARK  268  A    between atoms: _651  and  _652
REMARK                            x       y       z     vdW  Elec       q    Type
REMARK                         _______ _______ _______ _____ _____    ______ ____
ROOT
ATOM      1  CA  ARG A   1     -11.997  -9.385 -14.562  0.00  0.00    +0.145 C 
ENDROOT
BRANCH   1   2
ATOM      2  C   ARG A   1     -12.005  -7.838 -14.362  0.00  0.00    +0.238 C 
ATOM      3  O   ARG A   1     -13.017  -7.263 -13.935  0.00  0.00    -0.274 OA
ATOM      4  N   LEU A   2     -10.890  -7.168 -14.706  0.00  0.00    -0.298 N 
ATOM      5  H   LEU A   2     -10.072  -7.691 -15.079  0.00  0.00    +0.150 HD
BRANCH   4   6
ATOM      6  CA  LEU A   2     -10.810  -5.692 -14.560  0.00  0.00    +0.137 C 
BRANCH   6   7
ATOM      7  C   LEU A   2     -11.803  -5.030 -15.479  0.00  0.00    +0.227 C 
ATOM      8  O   LEU A   2     -12.395  -4.018 -15.146  0.00  0.00    -0.286 OA
ENDBRANCH   6   7
BRANCH   6   9
ATOM      9  CB  LEU A   2      -9.391  -5.187 -14.872  0.00  0.00    +0.028 C 
BRANCH   9  10
ATOM     10  CG  LEU A   2      -8.348  -5.501 -13.816  0.00  0.00    +0.002 C 
ATOM     11  CD2 LEU A   2      -8.764  -4.810 -12.497  0.00  0.00    +0.000 C 
ATOM     12  CD1 LEU A   2      -6.993  -4.997 -14.282  0.00  0.00    +0.000 C 
ENDBRANCH   9  10
ENDBRANCH   6   9
ENDBRANCH   4   6
ENDBRANCH   1   2
BRANCH   1  13
ATOM     13  N   ARG A   1     -11.391  -9.753 -15.834  0.00  0.00    -0.238 NA
ATOM     14  H   ARG A   1     -10.461 -10.219 -15.833  0.00  0.00    +0.142 HD
ENDBRANCH   1  13
BRANCH   1  15
ATOM     15  CB  ARG A   1     -11.260 -10.114 -13.427  0.00  0.00    +0.030 C 
BRANCH  15  16
ATOM     16  CG  ARG A   1     -11.415  -9.511 -12.034  0.00  0.00    +0.045 C 
BRANCH  16  17
ATOM     17  CD  ARG A   1     -12.778  -9.739 -11.471  0.00  0.00    +0.174 C 
BRANCH  17  18
ATOM     18  NE  ARG A   1     -12.922  -9.053 -10.191  0.00  0.00    -0.265 N 
ATOM     19  CZ  ARG A   1     -14.013  -9.097  -9.431  0.00  0.00    +0.342 C 
ATOM     20  NH2 ARG A   1     -14.052  -8.432  -8.275  0.00  0.00    -0.292 N 
ATOM     21 HH21 ARG A   1     -14.906  -8.468  -7.683  0.00  0.00    +0.255 HD
ATOM     22 HH22 ARG A   1     -13.228  -7.877  -7.966  0.00  0.00    +0.255 HD
ATOM     23  NH1 ARG A   1     -15.069  -9.802  -9.823  0.00  0.00    -0.292 N 
ATOM     24 HH11 ARG A   1     -15.922  -9.836  -9.228  0.00  0.00    +0.255 HD
ATOM     25 HH12 ARG A   1     -15.043 -10.320 -10.725  0.00  0.00    +0.255 HD
ATOM     26  HE  ARG A   1     -12.116  -8.491  -9.849  0.00  0.00    +0.259 HD
ENDBRANCH  17  18
ENDBRANCH  16  17
ENDBRANCH  15  16
ENDBRANCH   1  15
TORSDOF 10
REMARK  Name = ../refined-set-2016/3f8c/3f8c_pocket.pdb
REMARK  268 active torsions:
REMARK  status: ('A' for Active; 'I' for Inactive)
REMARK    1  A    between atoms: _1  and  _5
REMARK    2  A    between atoms: _5  and  _6
REMARK    3  A    between atoms: _5  and  _8
REMARK    4  A    between atoms: _8  and  _9
REMARK    5  A    between atoms: _9  and  _10
REMARK    6  A    between atoms: _14  and  _15
REMARK    7  A    between atoms: _20  and  _22
REMARK    8  A    between atoms: _22  and  _23
REMARK    9  A    between atoms: _22  and  _25
REMARK   10  A    between atoms: _25  and  _26
REMARK   11  A    between atoms: _26  and  _27
REMARK   12  A    between atoms: _29  and  _31
REMARK   13  A    between atoms: _31  and  _32
REMARK   14  A    between atoms: _31  and  _34
REMARK   15  A    between atoms: _34  and  _35
REMARK   16  A    between atoms: _35  and  _36
REMARK   17  A    between atoms: _36  and  _37
REMARK   18  A    between atoms: _46  and  _48
REMARK   19  A    between atoms: _48  and  _49
REMARK   20  A    between atoms: _52  and  _54
REMARK   21  A    between atoms: _54  and  _55
REMARK   22  A    between atoms: _54  and  _57
REMARK   23  A    between atoms: _57  and  _58
REMARK   24  A    between atoms: _58  and  _59
REMARK   25  A    between atoms: _64  and  _66
REMARK   26  A    between atoms: _66  and  _67
REMARK   27  A    between atoms: _66  and  _69
REMARK   28  A    between atoms: _69  and  _70
REMARK   29  A    between atoms: _73  and  _75
REMARK   30  A    between atoms: _75  and  _76
REMARK   31  A    between atoms: _75  and  _78
REMARK   32  A    between atoms: _78  and  _79
REMARK   33  A    between atoms: _84  and  _86
REMARK   34  A    between atoms: _86  and  _87
REMARK   35  A    between atoms: _86  and  _89
REMARK   36  A    between atoms: _92  and  _94
REMARK   37  A    between atoms: _94  and  _95
REMARK   38  A    between atoms: _94  and  _97
REMARK   39  A    between atoms: _97  and  _98
REMARK   40  A    between atoms: _101  and  _103
REMARK   41  A    between atoms: _103  and  _104
REMARK   42  A    between atoms: _103  and  _106
REMARK   43  A    between atoms: _106  and  _107
REMARK   44  A    between atoms: _110  and  _112
REMARK   45  A    between atoms: _112  and  _113
REMARK   46  A    between atoms: _112  and  _115
REMARK   47  A    between atoms: _115  and  _116
REMARK   48  A    between atoms: _121  and  _123
REMARK   49  A    between atoms: _123  and  _124
REMARK   50  A    between atoms: _123  and  _126
REMARK   51  A    between atoms: _126  and  _127
REMARK   52  A    between atoms: _127  and  _128
REMARK   53  A    between atoms: _128  and  _129
REMARK   54  A    between atoms: _129  and  _130
REMARK   55  A    between atoms: _134  and  _136
REMARK   56  A    between atoms: _136  and  _137
REMARK   57  A    between atoms: _136  and  _139
REMARK   58  A    between atoms: _139  and  _140
REMARK   59  A    between atoms: _140  and  _141
REMARK   60  A    between atoms: _141  and  _142
REMARK   61  A    between atoms: _151  and  _153
REMARK   62  A    between atoms: _153  and  _154
REMARK   63  A    between atoms: _153  and  _156
REMARK   64  A    between atoms: _156  and  _157
REMARK   65  A    between atoms: _160  and  _162
REMARK   66  A    between atoms: _162  and  _163
REMARK   67  A    between atoms: _162  and  _165
REMARK   68  A    between atoms: _165  and  _166
REMARK   69  A    between atoms: _169  and  _171
REMARK   70  A    between atoms: _171  and  _172
REMARK   71  A    between atoms: _171  and  _174
REMARK   72  A    between atoms: _174  and  _175
REMARK   73  A    between atoms: _178  and  _180
REMARK   74  A    between atoms: _180  and  _181
REMARK   75  A    between atoms: _180  and  _183
REMARK   76  A    between atoms: _183  and  _184
REMARK   77  A    between atoms: _187  and  _189
REMARK   78  A    between atoms: _189  and  _190
REMARK   79  A    between atoms: _189  and  _192
REMARK   80  A    between atoms: _192  and  _193
REMARK   81  A    between atoms: _196  and  _198
REMARK   82  A    between atoms: _198  and  _199
REMARK   83  A    between atoms: _201  and  _203
REMARK   84  A    between atoms: _203  and  _204
REMARK   85  A    between atoms: _203  and  _206
REMARK   86  A    between atoms: _206  and  _207
REMARK   87  A    between atoms: _212  and  _214
REMARK   88  A    between atoms: _214  and  _215
REMARK   89  A    between atoms: _214  and  _217
REMARK   90  A    between atoms: _217  and  _218
REMARK   91  A    between atoms: _218  and  _219
REMARK   92  A    between atoms: _222  and  _224
REMARK   93  A    between atoms: _224  and  _225
REMARK   94  A    between atoms: _224  and  _227
REMARK   95  A    between atoms: _227  and  _228
REMARK   96  A    between atoms: _233  and  _235
REMARK   97  A    between atoms: _235  and  _236
REMARK   98  A    between atoms: _235  and  _238
REMARK   99  A    between atoms: _238  and  _239
REMARK  100  A    between atoms: _239  and  _240
REMARK  101  A    between atoms: _242  and  _244
REMARK  102  A    between atoms: _244  and  _245
REMARK  103  A    between atoms: _244  and  _247
REMARK  104  A    between atoms: _247  and  _248
REMARK  105  A    between atoms: _248  and  _249
REMARK  106  A    between atoms: _249  and  _250
REMARK  107  A    between atoms: _259  and  _261
REMARK  108  A    between atoms: _261  and  _262
REMARK  109  A    between atoms: _261  and  _264
REMARK  110  A    between atoms: _264  and  _265
REMARK  111  A    between atoms: _268  and  _270
REMARK  112  A    between atoms: _270  and  _271
REMARK  113  A    between atoms: _274  and  _276
REMARK  114  A    between atoms: _276  and  _277
REMARK  115  A    between atoms: _276  and  _279
REMARK  116  A    between atoms: _279  and  _280
REMARK  117  A    between atoms: _286  and  _288
REMARK  118  A    between atoms: _288  and  _289
REMARK  119  A    between atoms: _288  and  _291
REMARK  120  A    between atoms: _291  and  _292
REMARK  121  A    between atoms: _292  and  _293
REMARK  122  A    between atoms: _296  and  _298
REMARK  123  A    between atoms: _298  and  _299
REMARK  124  A    between atoms: _298  and  _301
REMARK  125  A    between atoms: _301  and  _302
REMARK  126  A    between atoms: _304  and  _306
REMARK  127  A    between atoms: _306  and  _307
REMARK  128  A    between atoms: _306  and  _309
REMARK  129  A    between atoms: _309  and  _310
REMARK  130  A    between atoms: _320  and  _322
REMARK  131  A    between atoms: _322  and  _323
REMARK  132  A    between atoms: _322  and  _325
REMARK  133  A    between atoms: _325  and  _326
REMARK  134  A    between atoms: _328  and  _330
REMARK  135  A    between atoms: _330  and  _331
REMARK  136  A    between atoms: _330  and  _333
REMARK  137  A    between atoms: _336  and  _338
REMARK  138  A    between atoms: _338  and  _339
REMARK  139  A    between atoms: _338  and  _341
REMARK  140  A    between atoms: _341  and  _342
REMARK  141  A    between atoms: _345  and  _347
REMARK  142  A    between atoms: _347  and  _348
REMARK  143  A    between atoms: _347  and  _350
REMARK  144  A    between atoms: _350  and  _351
REMARK  145  A    between atoms: _354  and  _358
REMARK  146  A    between atoms: _358  and  _359
REMARK  147  A    between atoms: _358  and  _361
REMARK  148  A    between atoms: _361  and  _362
REMARK  149  A    between atoms: _362  and  _363
REMARK  150  A    between atoms: _367  and  _368
REMARK  151  A    between atoms: _373  and  _375
REMARK  152  A    between atoms: _375  and  _376
REMARK  153  A    between atoms: _375  and  _378
REMARK  154  A    between atoms: _378  and  _379
REMARK  155  A    between atoms: _379  and  _380
REMARK  156  A    between atoms: _382  and  _384
REMARK  157  A    between atoms: _384  and  _385
REMARK  158  A    between atoms: _388  and  _390
REMARK  159  A    between atoms: _390  and  _391
REMARK  160  A    between atoms: _390  and  _393
REMARK  161  A    between atoms: _393  and  _394
REMARK  162  A    between atoms: _394  and  _395
REMARK  163  A    between atoms: _400  and  _402
REMARK  164  A    between atoms: _402  and  _403
REMARK  165  A    between atoms: _402  and  _405
REMARK  166  A    between atoms: _405  and  _406
REMARK  167  A    between atoms: _411  and  _413
REMARK  168  A    between atoms: _413  and  _414
REMARK  169  A    between atoms: _413  and  _416
REMARK  170  A    between atoms: _419  and  _421
REMARK  171  A    between atoms: _421  and  _422
REMARK  172  A    between atoms: _421  and  _424
REMARK  173  A    between atoms: _424  and  _425
REMARK  174  A    between atoms: _428  and  _430
REMARK  175  A    between atoms: _430  and  _431
REMARK  176  A    between atoms: _430  and  _433
REMARK  177  A    between atoms: _433  and  _434
REMARK  178  A    between atoms: _437  and  _439
REMARK  179  A    between atoms: _439  and  _440
REMARK  180  A    between atoms: _439  and  _442
REMARK  181  A    between atoms: _442  and  _443
REMARK  182  A    between atoms: _448  and  _450
REMARK  183  A    between atoms: _450  and  _451
REMARK  184  A    between atoms: _450  and  _453
REMARK  185  A    between atoms: _453  and  _454
REMARK  186  A    between atoms: _454  and  _455
REMARK  187  A    between atoms: _455  and  _456
REMARK  188  A    between atoms: _456  and  _457
REMARK  189  A    between atoms: _461  and  _463
REMARK  190  A    between atoms: _463  and  _464
REMARK  191  A    between atoms: _463  and  _466
REMARK  192  A    between atoms: _466  and  _467
REMARK  193  A    between atoms: _470  and  _472
REMARK  194  A    between atoms: _472  and  _473
REMARK  195  A    between atoms: _472  and  _475
REMARK  196  A    between atoms: _475  and  _476
REMARK  197  A    between atoms: _479  and  _481
REMARK  198  A    between atoms: _481  and  _482
REMARK  199  A    between atoms: _481  and  _484
REMARK  200  A    between atoms: _484  and  _485
REMARK  201  A    between atoms: _488  and  _490
REMARK  202  A    between atoms: _490  and  _491
REMARK  203  A    between atoms: _490  and  _493
REMARK  204  A    between atoms: _493  and  _494
REMARK  205  A    between atoms: _497  and  _499
REMARK  206  A    between atoms: _499  and  _500
REMARK  207  A    between atoms: _502  and  _504
REMARK  208  A    between atoms: _504  and  _505
REMARK  209  A    between atoms: _504  and  _507
REMARK  210  A    between atoms: _507  and  _508
REMARK  211  A    between atoms: _513  and  _515
REMARK  212  A    between atoms: _515  and  _516
REMARK  213  A    between atoms: _515  and  _518
REMARK  214  A    between atoms: _518  and  _519
REMARK  215  A    between atoms: _519  and  _520
REMARK  216  A    between atoms: _523  and  _525
REMARK  217  A    between atoms: _525  and  _526
REMARK  218  A    between atoms: _525  and  _528
REMARK  219  A    between atoms: _528  and  _529
REMARK  220  A    between atoms: _534  and  _536
REMARK  221  A    between atoms: _536  and  _537
REMARK  222  A    between atoms: _536  and  _539
REMARK  223  A    between atoms: _539  and  _540
REMARK  224  A    between atoms: _540  and  _541
REMARK  225  A    between atoms: _543  and  _545
REMARK  226  A    between atoms: _545  and  _546
REMARK  227  A    between atoms: _545  and  _548
REMARK  228  A    between atoms: _548  and  _549
REMARK  229  A    between atoms: _549  and  _550
REMARK  230  A    between atoms: _550  and  _551
REMARK  231  A    between atoms: _560  and  _562
REMARK  232  A    between atoms: _562  and  _563
REMARK  233  A    between atoms: _562  and  _565
REMARK  234  A    between atoms: _565  and  _566
REMARK  235  A    between atoms: _569  and  _571
REMARK  236  A    between atoms: _571  and  _572
REMARK  237  A    between atoms: _575  and  _577
REMARK  238  A    between atoms: _577  and  _578
REMARK  239  A    between atoms: _577  and  _580
REMARK  240  A    between atoms: _580  and  _581
REMARK  241  A    between atoms: _587  and  _589
REMARK  242  A    between atoms: _589  and  _590
REMARK  243  A    between atoms: _589  and  _592
REMARK  244  A    between atoms: _592  and  _593
REMARK  245  A    between atoms: _593  and  _594
REMARK  246  A    between atoms: _597  and  _599
REMARK  247  A    between atoms: _599  and  _600
REMARK  248  A    between atoms: _599  and  _602
REMARK  249  A    between atoms: _602  and  _603
REMARK  250  A    between atoms: _605  and  _607
REMARK  251  A    between atoms: _607  and  _608
REMARK  252  A    between atoms: _607  and  _610
REMARK  253  A    between atoms: _610  and  _611
REMARK  254  A    between atoms: _621  and  _623
REMARK  255  A    between atoms: _623  and  _624
REMARK  256  A    between atoms: _623  and  _626
REMARK  257  A    between atoms: _626  and  _627
REMARK  258  A    between atoms: _629  and  _631
REMARK  259  A    between atoms: _631  and  _632
REMARK  260  A    between atoms: _631  and  _634
REMARK  261  A    between atoms: _637  and  _639
REMARK  262  A    between atoms: _639  and  _640
REMARK  263  A    between atoms: _639  and  _642
REMARK  264  A    between atoms: _642  and  _643
REMARK  265  A    between atoms: _646  and  _648
REMARK  266  A    between atoms: _648  and  _649
REMARK  267  A    between atoms: _648  and  _651
REMARK  268  A    between atoms: _651  and  _652
REMARK                            x       y       z     vdW  Elec       q    Type
REMARK                         _______ _______ _______ _____ _____    ______ ____
ROOT
ATOM      1  CA  ASP A   1     -15.449  -4.519 -13.138  0.00  0.00    +0.144 C 
ENDROOT
BRANCH   1   2
ATOM      2  N   ASP A   1     -15.267  -5.431 -14.272  0.00  0.00    -0.239 NA
ATOM      3  H   ASP A   1     -14.311  -5.764 -14.508  0.00  0.00    +0.142 HD
ENDBRANCH   1   2
BRANCH   1   4
ATOM      4  C   ASP A   1     -15.472  -3.066 -13.550  0.00  0.00    +0.225 C 
ATOM      5  O   ASP A   1     -15.600  -2.206 -12.724  0.00  0.00    -0.287 OA
ENDBRANCH   1   4
BRANCH   1   6
ATOM      6  CB  ASP A   1     -14.367  -4.734 -12.113  0.00  0.00    +0.139 C 
BRANCH   6   7
ATOM      7  CG  ASP A   1     -14.562  -6.025 -11.326  0.00  0.00    +0.367 C 
ATOM      8  OD2 ASP A   1     -13.566  -6.543 -10.771  0.00  0.00    -0.246 OA
ATOM      9  OD1 ASP A   1     -15.712  -6.520 -11.271  0.00  0.00    -0.246 OA
ENDBRANCH   6   7
ENDBRANCH   1   6
TORSDOF 4
REMARK  Name = ../refined-set-2016/3f8c/3f8c_pocket.pdb
REMARK  268 active torsions:
REMARK  status: ('A' for Active; 'I' for Inactive)
REMARK    1  A    between atoms: _1  and  _5
REMARK    2  A    between atoms: _5  and  _6
REMARK    3  A    between atoms: _5  and  _8
REMARK    4  A    between atoms: _8  and  _9
REMARK    5  A    between atoms: _9  and  _10
REMARK    6  A    between atoms: _14  and  _15
REMARK    7  A    between atoms: _20  and  _22
REMARK    8  A    between atoms: _22  and  _23
REMARK    9  A    between atoms: _22  and  _25
REMARK   10  A    between atoms: _25  and  _26
REMARK   11  A    between atoms: _26  and  _27
REMARK   12  A    between atoms: _29  and  _31
REMARK   13  A    between atoms: _31  and  _32
REMARK   14  A    between atoms: _31  and  _34
REMARK   15  A    between atoms: _34  and  _35
REMARK   16  A    between atoms: _35  and  _36
REMARK   17  A    between atoms: _36  and  _37
REMARK   18  A    between atoms: _46  and  _48
REMARK   19  A    between atoms: _48  and  _49
REMARK   20  A    between atoms: _52  and  _54
REMARK   21  A    between atoms: _54  and  _55
REMARK   22  A    between atoms: _54  and  _57
REMARK   23  A    between atoms: _57  and  _58
REMARK   24  A    between atoms: _58  and  _59
REMARK   25  A    between atoms: _64  and  _66
REMARK   26  A    between atoms: _66  and  _67
REMARK   27  A    between atoms: _66  and  _69
REMARK   28  A    between atoms: _69  and  _70
REMARK   29  A    between atoms: _73  and  _75
REMARK   30  A    between atoms: _75  and  _76
REMARK   31  A    between atoms: _75  and  _78
REMARK   32  A    between atoms: _78  and  _79
REMARK   33  A    between atoms: _84  and  _86
REMARK   34  A    between atoms: _86  and  _87
REMARK   35  A    between atoms: _86  and  _89
REMARK   36  A    between atoms: _92  and  _94
REMARK   37  A    between atoms: _94  and  _95
REMARK   38  A    between atoms: _94  and  _97
REMARK   39  A    between atoms: _97  and  _98
REMARK   40  A    between atoms: _101  and  _103
REMARK   41  A    between atoms: _103  and  _104
REMARK   42  A    between atoms: _103  and  _106
REMARK   43  A    between atoms: _106  and  _107
REMARK   44  A    between atoms: _110  and  _112
REMARK   45  A    between atoms: _112  and  _113
REMARK   46  A    between atoms: _112  and  _115
REMARK   47  A    between atoms: _115  and  _116
REMARK   48  A    between atoms: _121  and  _123
REMARK   49  A    between atoms: _123  and  _124
REMARK   50  A    between atoms: _123  and  _126
REMARK   51  A    between atoms: _126  and  _127
REMARK   52  A    between atoms: _127  and  _128
REMARK   53  A    between atoms: _128  and  _129
REMARK   54  A    between atoms: _129  and  _130
REMARK   55  A    between atoms: _134  and  _136
REMARK   56  A    between atoms: _136  and  _137
REMARK   57  A    between atoms: _136  and  _139
REMARK   58  A    between atoms: _139  and  _140
REMARK   59  A    between atoms: _140  and  _141
REMARK   60  A    between atoms: _141  and  _142
REMARK   61  A    between atoms: _151  and  _153
REMARK   62  A    between atoms: _153  and  _154
REMARK   63  A    between atoms: _153  and  _156
REMARK   64  A    between atoms: _156  and  _157
REMARK   65  A    between atoms: _160  and  _162
REMARK   66  A    between atoms: _162  and  _163
REMARK   67  A    between atoms: _162  and  _165
REMARK   68  A    between atoms: _165  and  _166
REMARK   69  A    between atoms: _169  and  _171
REMARK   70  A    between atoms: _171  and  _172
REMARK   71  A    between atoms: _171  and  _174
REMARK   72  A    between atoms: _174  and  _175
REMARK   73  A    between atoms: _178  and  _180
REMARK   74  A    between atoms: _180  and  _181
REMARK   75  A    between atoms: _180  and  _183
REMARK   76  A    between atoms: _183  and  _184
REMARK   77  A    between atoms: _187  and  _189
REMARK   78  A    between atoms: _189  and  _190
REMARK   79  A    between atoms: _189  and  _192
REMARK   80  A    between atoms: _192  and  _193
REMARK   81  A    between atoms: _196  and  _198
REMARK   82  A    between atoms: _198  and  _199
REMARK   83  A    between atoms: _201  and  _203
REMARK   84  A    between atoms: _203  and  _204
REMARK   85  A    between atoms: _203  and  _206
REMARK   86  A    between atoms: _206  and  _207
REMARK   87  A    between atoms: _212  and  _214
REMARK   88  A    between atoms: _214  and  _215
REMARK   89  A    between atoms: _214  and  _217
REMARK   90  A    between atoms: _217  and  _218
REMARK   91  A    between atoms: _218  and  _219
REMARK   92  A    between atoms: _222  and  _224
REMARK   93  A    between atoms: _224  and  _225
REMARK   94  A    between atoms: _224  and  _227
REMARK   95  A    between atoms: _227  and  _228
REMARK   96  A    between atoms: _233  and  _235
REMARK   97  A    between atoms: _235  and  _236
REMARK   98  A    between atoms: _235  and  _238
REMARK   99  A    between atoms: _238  and  _239
REMARK  100  A    between atoms: _239  and  _240
REMARK  101  A    between atoms: _242  and  _244
REMARK  102  A    between atoms: _244  and  _245
REMARK  103  A    between atoms: _244  and  _247
REMARK  104  A    between atoms: _247  and  _248
REMARK  105  A    between atoms: _248  and  _249
REMARK  106  A    between atoms: _249  and  _250
REMARK  107  A    between atoms: _259  and  _261
REMARK  108  A    between atoms: _261  and  _262
REMARK  109  A    between atoms: _261  and  _264
REMARK  110  A    between atoms: _264  and  _265
REMARK  111  A    between atoms: _268  and  _270
REMARK  112  A    between atoms: _270  and  _271
REMARK  113  A    between atoms: _274  and  _276
REMARK  114  A    between atoms: _276  and  _277
REMARK  115  A    between atoms: _276  and  _279
REMARK  116  A    between atoms: _279  and  _280
REMARK  117  A    between atoms: _286  and  _288
REMARK  118  A    between atoms: _288  and  _289
REMARK  119  A    between atoms: _288  and  _291
REMARK  120  A    between atoms: _291  and  _292
REMARK  121  A    between atoms: _292  and  _293
REMARK  122  A    between atoms: _296  and  _298
REMARK  123  A    between atoms: _298  and  _299
REMARK  124  A    between atoms: _298  and  _301
REMARK  125  A    between atoms: _301  and  _302
REMARK  126  A    between atoms: _304  and  _306
REMARK  127  A    between atoms: _306  and  _307
REMARK  128  A    between atoms: _306  and  _309
REMARK  129  A    between atoms: _309  and  _310
REMARK  130  A    between atoms: _320  and  _322
REMARK  131  A    between atoms: _322  and  _323
REMARK  132  A    between atoms: _322  and  _325
REMARK  133  A    between atoms: _325  and  _326
REMARK  134  A    between atoms: _328  and  _330
REMARK  135  A    between atoms: _330  and  _331
REMARK  136  A    between atoms: _330  and  _333
REMARK  137  A    between atoms: _336  and  _338
REMARK  138  A    between atoms: _338  and  _339
REMARK  139  A    between atoms: _338  and  _341
REMARK  140  A    between atoms: _341  and  _342
REMARK  141  A    between atoms: _345  and  _347
REMARK  142  A    between atoms: _347  and  _348
REMARK  143  A    between atoms: _347  and  _350
REMARK  144  A    between atoms: _350  and  _351
REMARK  145  A    between atoms: _354  and  _358
REMARK  146  A    between atoms: _358  and  _359
REMARK  147  A    between atoms: _358  and  _361
REMARK  148  A    between atoms: _361  and  _362
REMARK  149  A    between atoms: _362  and  _363
REMARK  150  A    between atoms: _367  and  _368
REMARK  151  A    between atoms: _373  and  _375
REMARK  152  A    between atoms: _375  and  _376
REMARK  153  A    between atoms: _375  and  _378
REMARK  154  A    between atoms: _378  and  _379
REMARK  155  A    between atoms: _379  and  _380
REMARK  156  A    between atoms: _382  and  _384
REMARK  157  A    between atoms: _384  and  _385
REMARK  158  A    between atoms: _388  and  _390
REMARK  159  A    between atoms: _390  and  _391
REMARK  160  A    between atoms: _390  and  _393
REMARK  161  A    between atoms: _393  and  _394
REMARK  162  A    between atoms: _394  and  _395
REMARK  163  A    between atoms: _400  and  _402
REMARK  164  A    between atoms: _402  and  _403
REMARK  165  A    between atoms: _402  and  _405
REMARK  166  A    between atoms: _405  and  _406
REMARK  167  A    between atoms: _411  and  _413
REMARK  168  A    between atoms: _413  and  _414
REMARK  169  A    between atoms: _413  and  _416
REMARK  170  A    between atoms: _419  and  _421
REMARK  171  A    between atoms: _421  and  _422
REMARK  172  A    between atoms: _421  and  _424
REMARK  173  A    between atoms: _424  and  _425
REMARK  174  A    between atoms: _428  and  _430
REMARK  175  A    between atoms: _430  and  _431
REMARK  176  A    between atoms: _430  and  _433
REMARK  177  A    between atoms: _433  and  _434
REMARK  178  A    between atoms: _437  and  _439
REMARK  179  A    between atoms: _439  and  _440
REMARK  180  A    between atoms: _439  and  _442
REMARK  181  A    between atoms: _442  and  _443
REMARK  182  A    between atoms: _448  and  _450
REMARK  183  A    between atoms: _450  and  _451
REMARK  184  A    between atoms: _450  and  _453
REMARK  185  A    between atoms: _453  and  _454
REMARK  186  A    between atoms: _454  and  _455
REMARK  187  A    between atoms: _455  and  _456
REMARK  188  A    between atoms: _456  and  _457
REMARK  189  A    between atoms: _461  and  _463
REMARK  190  A    between atoms: _463  and  _464
REMARK  191  A    between atoms: _463  and  _466
REMARK  192  A    between atoms: _466  and  _467
REMARK  193  A    between atoms: _470  and  _472
REMARK  194  A    between atoms: _472  and  _473
REMARK  195  A    between atoms: _472  and  _475
REMARK  196  A    between atoms: _475  and  _476
REMARK  197  A    between atoms: _479  and  _481
REMARK  198  A    between atoms: _481  and  _482
REMARK  199  A    between atoms: _481  and  _484
REMARK  200  A    between atoms: _484  and  _485
REMARK  201  A    between atoms: _488  and  _490
REMARK  202  A    between atoms: _490  and  _491
REMARK  203  A    between atoms: _490  and  _493
REMARK  204  A    between atoms: _493  and  _494
REMARK  205  A    between atoms: _497  and  _499
REMARK  206  A    between atoms: _499  and  _500
REMARK  207  A    between atoms: _502  and  _504
REMARK  208  A    between atoms: _504  and  _505
REMARK  209  A    between atoms: _504  and  _507
REMARK  210  A    between atoms: _507  and  _508
REMARK  211  A    between atoms: _513  and  _515
REMARK  212  A    between atoms: _515  and  _516
REMARK  213  A    between atoms: _515  and  _518
REMARK  214  A    between atoms: _518  and  _519
REMARK  215  A    between atoms: _519  and  _520
REMARK  216  A    between atoms: _523  and  _525
REMARK  217  A    between atoms: _525  and  _526
REMARK  218  A    between atoms: _525  and  _528
REMARK  219  A    between atoms: _528  and  _529
REMARK  220  A    between atoms: _534  and  _536
REMARK  221  A    between atoms: _536  and  _537
REMARK  222  A    between atoms: _536  and  _539
REMARK  223  A    between atoms: _539  and  _540
REMARK  224  A    between atoms: _540  and  _541
REMARK  225  A    between atoms: _543  and  _545
REMARK  226  A    between atoms: _545  and  _546
REMARK  227  A    between atoms: _545  and  _548
REMARK  228  A    between atoms: _548  and  _549
REMARK  229  A    between atoms: _549  and  _550
REMARK  230  A    between atoms: _550  and  _551
REMARK  231  A    between atoms: _560  and  _562
REMARK  232  A    between atoms: _562  and  _563
REMARK  233  A    between atoms: _562  and  _565
REMARK  234  A    between atoms: _565  and  _566
REMARK  235  A    between atoms: _569  and  _571
REMARK  236  A    between atoms: _571  and  _572
REMARK  237  A    between atoms: _575  and  _577
REMARK  238  A    between atoms: _577  and  _578
REMARK  239  A    between atoms: _577  and  _580
REMARK  240  A    between atoms: _580  and  _581
REMARK  241  A    between atoms: _587  and  _589
REMARK  242  A    between atoms: _589  and  _590
REMARK  243  A    between atoms: _589  and  _592
REMARK  244  A    between atoms: _592  and  _593
REMARK  245  A    between atoms: _593  and  _594
REMARK  246  A    between atoms: _597  and  _599
REMARK  247  A    between atoms: _599  and  _600
REMARK  248  A    between atoms: _599  and  _602
REMARK  249  A    between atoms: _602  and  _603
REMARK  250  A    between atoms: _605  and  _607
REMARK  251  A    between atoms: _607  and  _608
REMARK  252  A    between atoms: _607  and  _610
REMARK  253  A    between atoms: _610  and  _611
REMARK  254  A    between atoms: _621  and  _623
REMARK  255  A    between atoms: _623  and  _624
REMARK  256  A    between atoms: _623  and  _626
REMARK  257  A    between atoms: _626  and  _627
REMARK  258  A    between atoms: _629  and  _631
REMARK  259  A    between atoms: _631  and  _632
REMARK  260  A    between atoms: _631  and  _634
REMARK  261  A    between atoms: _637  and  _639
REMARK  262  A    between atoms: _639  and  _640
REMARK  263  A    between atoms: _639  and  _642
REMARK  264  A    between atoms: _642  and  _643
REMARK  265  A    between atoms: _646  and  _648
REMARK  266  A    between atoms: _648  and  _649
REMARK  267  A    between atoms: _648  and  _651
REMARK  268  A    between atoms: _651  and  _652
REMARK                            x       y       z     vdW  Elec       q    Type
REMARK                         _______ _______ _______ _____ _____    ______ ____
ROOT
ATOM      1  CA  ILE A   1     -11.825  -0.599 -14.447  0.00  0.00    +0.133 C 
ENDROOT
BRANCH   1   2
ATOM      2  N   ILE A   1     -13.082  -1.303 -14.825  0.00  0.00    -0.239 NA
ATOM      3  H   ILE A   1     -13.092  -2.342 -14.862  0.00  0.00    +0.142 HD
ENDBRANCH   1   2
BRANCH   1   4
ATOM      4  CB  ILE A   1     -10.989  -1.421 -13.422  0.00  0.00    +0.023 C 
ATOM      5  CG2 ILE A   1      -9.665  -0.672 -13.034  0.00  0.00    +0.002 C 
BRANCH   4   6
ATOM      6  CG1 ILE A   1     -11.806  -1.670 -12.160  0.00  0.00    +0.002 C 
ATOM      7  CD1 ILE A   1     -12.239  -0.403 -11.484  0.00  0.00    +0.000 C 
ENDBRANCH   4   6
ENDBRANCH   1   4
BRANCH   1   8
ATOM      8  C   ILE A   1     -10.969  -0.264 -15.696  0.00  0.00    +0.224 C 
ATOM      9  O   ILE A   1     -10.287   0.756 -15.737  0.00  0.00    -0.287 OA
ENDBRANCH   1   8
TORSDOF 4
REMARK  Name = ../refined-set-2016/3f8c/3f8c_pocket.pdb
REMARK  268 active torsions:
REMARK  status: ('A' for Active; 'I' for Inactive)
REMARK    1  A    between atoms: _1  and  _5
REMARK    2  A    between atoms: _5  and  _6
REMARK    3  A    between atoms: _5  and  _8
REMARK    4  A    between atoms: _8  and  _9
REMARK    5  A    between atoms: _9  and  _10
REMARK    6  A    between atoms: _14  and  _15
REMARK    7  A    between atoms: _20  and  _22
REMARK    8  A    between atoms: _22  and  _23
REMARK    9  A    between atoms: _22  and  _25
REMARK   10  A    between atoms: _25  and  _26
REMARK   11  A    between atoms: _26  and  _27
REMARK   12  A    between atoms: _29  and  _31
REMARK   13  A    between atoms: _31  and  _32
REMARK   14  A    between atoms: _31  and  _34
REMARK   15  A    between atoms: _34  and  _35
REMARK   16  A    between atoms: _35  and  _36
REMARK   17  A    between atoms: _36  and  _37
REMARK   18  A    between atoms: _46  and  _48
REMARK   19  A    between atoms: _48  and  _49
REMARK   20  A    between atoms: _52  and  _54
REMARK   21  A    between atoms: _54  and  _55
REMARK   22  A    between atoms: _54  and  _57
REMARK   23  A    between atoms: _57  and  _58
REMARK   24  A    between atoms: _58  and  _59
REMARK   25  A    between atoms: _64  and  _66
REMARK   26  A    between atoms: _66  and  _67
REMARK   27  A    between atoms: _66  and  _69
REMARK   28  A    between atoms: _69  and  _70
REMARK   29  A    between atoms: _73  and  _75
REMARK   30  A    between atoms: _75  and  _76
REMARK   31  A    between atoms: _75  and  _78
REMARK   32  A    between atoms: _78  and  _79
REMARK   33  A    between atoms: _84  and  _86
REMARK   34  A    between atoms: _86  and  _87
REMARK   35  A    between atoms: _86  and  _89
REMARK   36  A    between atoms: _92  and  _94
REMARK   37  A    between atoms: _94  and  _95
REMARK   38  A    between atoms: _94  and  _97
REMARK   39  A    between atoms: _97  and  _98
REMARK   40  A    between atoms: _101  and  _103
REMARK   41  A    between atoms: _103  and  _104
REMARK   42  A    between atoms: _103  and  _106
REMARK   43  A    between atoms: _106  and  _107
REMARK   44  A    between atoms: _110  and  _112
REMARK   45  A    between atoms: _112  and  _113
REMARK   46  A    between atoms: _112  and  _115
REMARK   47  A    between atoms: _115  and  _116
REMARK   48  A    between atoms: _121  and  _123
REMARK   49  A    between atoms: _123  and  _124
REMARK   50  A    between atoms: _123  and  _126
REMARK   51  A    between atoms: _126  and  _127
REMARK   52  A    between atoms: _127  and  _128
REMARK   53  A    between atoms: _128  and  _129
REMARK   54  A    between atoms: _129  and  _130
REMARK   55  A    between atoms: _134  and  _136
REMARK   56  A    between atoms: _136  and  _137
REMARK   57  A    between atoms: _136  and  _139
REMARK   58  A    between atoms: _139  and  _140
REMARK   59  A    between atoms: _140  and  _141
REMARK   60  A    between atoms: _141  and  _142
REMARK   61  A    between atoms: _151  and  _153
REMARK   62  A    between atoms: _153  and  _154
REMARK   63  A    between atoms: _153  and  _156
REMARK   64  A    between atoms: _156  and  _157
REMARK   65  A    between atoms: _160  and  _162
REMARK   66  A    between atoms: _162  and  _163
REMARK   67  A    between atoms: _162  and  _165
REMARK   68  A    between atoms: _165  and  _166
REMARK   69  A    between atoms: _169  and  _171
REMARK   70  A    between atoms: _171  and  _172
REMARK   71  A    between atoms: _171  and  _174
REMARK   72  A    between atoms: _174  and  _175
REMARK   73  A    between atoms: _178  and  _180
REMARK   74  A    between atoms: _180  and  _181
REMARK   75  A    between atoms: _180  and  _183
REMARK   76  A    between atoms: _183  and  _184
REMARK   77  A    between atoms: _187  and  _189
REMARK   78  A    between atoms: _189  and  _190
REMARK   79  A    between atoms: _189  and  _192
REMARK   80  A    between atoms: _192  and  _193
REMARK   81  A    between atoms: _196  and  _198
REMARK   82  A    between atoms: _198  and  _199
REMARK   83  A    between atoms: _201  and  _203
REMARK   84  A    between atoms: _203  and  _204
REMARK   85  A    between atoms: _203  and  _206
REMARK   86  A    between atoms: _206  and  _207
REMARK   87  A    between atoms: _212  and  _214
REMARK   88  A    between atoms: _214  and  _215
REMARK   89  A    between atoms: _214  and  _217
REMARK   90  A    between atoms: _217  and  _218
REMARK   91  A    between atoms: _218  and  _219
REMARK   92  A    between atoms: _222  and  _224
REMARK   93  A    between atoms: _224  and  _225
REMARK   94  A    between atoms: _224  and  _227
REMARK   95  A    between atoms: _227  and  _228
REMARK   96  A    between atoms: _233  and  _235
REMARK   97  A    between atoms: _235  and  _236
REMARK   98  A    between atoms: _235  and  _238
REMARK   99  A    between atoms: _238  and  _239
REMARK  100  A    between atoms: _239  and  _240
REMARK  101  A    between atoms: _242  and  _244
REMARK  102  A    between atoms: _244  and  _245
REMARK  103  A    between atoms: _244  and  _247
REMARK  104  A    between atoms: _247  and  _248
REMARK  105  A    between atoms: _248  and  _249
REMARK  106  A    between atoms: _249  and  _250
REMARK  107  A    between atoms: _259  and  _261
REMARK  108  A    between atoms: _261  and  _262
REMARK  109  A    between atoms: _261  and  _264
REMARK  110  A    between atoms: _264  and  _265
REMARK  111  A    between atoms: _268  and  _270
REMARK  112  A    between atoms: _270  and  _271
REMARK  113  A    between atoms: _274  and  _276
REMARK  114  A    between atoms: _276  and  _277
REMARK  115  A    between atoms: _276  and  _279
REMARK  116  A    between atoms: _279  and  _280
REMARK  117  A    between atoms: _286  and  _288
REMARK  118  A    between atoms: _288  and  _289
REMARK  119  A    between atoms: _288  and  _291
REMARK  120  A    between atoms: _291  and  _292
REMARK  121  A    between atoms: _292  and  _293
REMARK  122  A    between atoms: _296  and  _298
REMARK  123  A    between atoms: _298  and  _299
REMARK  124  A    between atoms: _298  and  _301
REMARK  125  A    between atoms: _301  and  _302
REMARK  126  A    between atoms: _304  and  _306
REMARK  127  A    between atoms: _306  and  _307
REMARK  128  A    between atoms: _306  and  _309
REMARK  129  A    between atoms: _309  and  _310
REMARK  130  A    between atoms: _320  and  _322
REMARK  131  A    between atoms: _322  and  _323
REMARK  132  A    between atoms: _322  and  _325
REMARK  133  A    between atoms: _325  and  _326
REMARK  134  A    between atoms: _328  and  _330
REMARK  135  A    between atoms: _330  and  _331
REMARK  136  A    between atoms: _330  and  _333
REMARK  137  A    between atoms: _336  and  _338
REMARK  138  A    between atoms: _338  and  _339
REMARK  139  A    between atoms: _338  and  _341
REMARK  140  A    between atoms: _341  and  _342
REMARK  141  A    between atoms: _345  and  _347
REMARK  142  A    between atoms: _347  and  _348
REMARK  143  A    between atoms: _347  and  _350
REMARK  144  A    between atoms: _350  and  _351
REMARK  145  A    between atoms: _354  and  _358
REMARK  146  A    between atoms: _358  and  _359
REMARK  147  A    between atoms: _358  and  _361
REMARK  148  A    between atoms: _361  and  _362
REMARK  149  A    between atoms: _362  and  _363
REMARK  150  A    between atoms: _367  and  _368
REMARK  151  A    between atoms: _373  and  _375
REMARK  152  A    between atoms: _375  and  _376
REMARK  153  A    between atoms: _375  and  _378
REMARK  154  A    between atoms: _378  and  _379
REMARK  155  A    between atoms: _379  and  _380
REMARK  156  A    between atoms: _382  and  _384
REMARK  157  A    between atoms: _384  and  _385
REMARK  158  A    between atoms: _388  and  _390
REMARK  159  A    between atoms: _390  and  _391
REMARK  160  A    between atoms: _390  and  _393
REMARK  161  A    between atoms: _393  and  _394
REMARK  162  A    between atoms: _394  and  _395
REMARK  163  A    between atoms: _400  and  _402
REMARK  164  A    between atoms: _402  and  _403
REMARK  165  A    between atoms: _402  and  _405
REMARK  166  A    between atoms: _405  and  _406
REMARK  167  A    between atoms: _411  and  _413
REMARK  168  A    between atoms: _413  and  _414
REMARK  169  A    between atoms: _413  and  _416
REMARK  170  A    between atoms: _419  and  _421
REMARK  171  A    between atoms: _421  and  _422
REMARK  172  A    between atoms: _421  and  _424
REMARK  173  A    between atoms: _424  and  _425
REMARK  174  A    between atoms: _428  and  _430
REMARK  175  A    between atoms: _430  and  _431
REMARK  176  A    between atoms: _430  and  _433
REMARK  177  A    between atoms: _433  and  _434
REMARK  178  A    between atoms: _437  and  _439
REMARK  179  A    between atoms: _439  and  _440
REMARK  180  A    between atoms: _439  and  _442
REMARK  181  A    between atoms: _442  and  _443
REMARK  182  A    between atoms: _448  and  _450
REMARK  183  A    between atoms: _450  and  _451
REMARK  184  A    between atoms: _450  and  _453
REMARK  185  A    between atoms: _453  and  _454
REMARK  186  A    between atoms: _454  and  _455
REMARK  187  A    between atoms: _455  and  _456
REMARK  188  A    between atoms: _456  and  _457
REMARK  189  A    between atoms: _461  and  _463
REMARK  190  A    between atoms: _463  and  _464
REMARK  191  A    between atoms: _463  and  _466
REMARK  192  A    between atoms: _466  and  _467
REMARK  193  A    between atoms: _470  and  _472
REMARK  194  A    between atoms: _472  and  _473
REMARK  195  A    between atoms: _472  and  _475
REMARK  196  A    between atoms: _475  and  _476
REMARK  197  A    between atoms: _479  and  _481
REMARK  198  A    between atoms: _481  and  _482
REMARK  199  A    between atoms: _481  and  _484
REMARK  200  A    between atoms: _484  and  _485
REMARK  201  A    between atoms: _488  and  _490
REMARK  202  A    between atoms: _490  and  _491
REMARK  203  A    between atoms: _490  and  _493
REMARK  204  A    between atoms: _493  and  _494
REMARK  205  A    between atoms: _497  and  _499
REMARK  206  A    between atoms: _499  and  _500
REMARK  207  A    between atoms: _502  and  _504
REMARK  208  A    between atoms: _504  and  _505
REMARK  209  A    between atoms: _504  and  _507
REMARK  210  A    between atoms: _507  and  _508
REMARK  211  A    between atoms: _513  and  _515
REMARK  212  A    between atoms: _515  and  _516
REMARK  213  A    between atoms: _515  and  _518
REMARK  214  A    between atoms: _518  and  _519
REMARK  215  A    between atoms: _519  and  _520
REMARK  216  A    between atoms: _523  and  _525
REMARK  217  A    between atoms: _525  and  _526
REMARK  218  A    between atoms: _525  and  _528
REMARK  219  A    between atoms: _528  and  _529
REMARK  220  A    between atoms: _534  and  _536
REMARK  221  A    between atoms: _536  and  _537
REMARK  222  A    between atoms: _536  and  _539
REMARK  223  A    between atoms: _539  and  _540
REMARK  224  A    between atoms: _540  and  _541
REMARK  225  A    between atoms: _543  and  _545
REMARK  226  A    between atoms: _545  and  _546
REMARK  227  A    between atoms: _545  and  _548
REMARK  228  A    between atoms: _548  and  _549
REMARK  229  A    between atoms: _549  and  _550
REMARK  230  A    between atoms: _550  and  _551
REMARK  231  A    between atoms: _560  and  _562
REMARK  232  A    between atoms: _562  and  _563
REMARK  233  A    between atoms: _562  and  _565
REMARK  234  A    between atoms: _565  and  _566
REMARK  235  A    between atoms: _569  and  _571
REMARK  236  A    between atoms: _571  and  _572
REMARK  237  A    between atoms: _575  and  _577
REMARK  238  A    between atoms: _577  and  _578
REMARK  239  A    between atoms: _577  and  _580
REMARK  240  A    between atoms: _580  and  _581
REMARK  241  A    between atoms: _587  and  _589
REMARK  242  A    between atoms: _589  and  _590
REMARK  243  A    between atoms: _589  and  _592
REMARK  244  A    between atoms: _592  and  _593
REMARK  245  A    between atoms: _593  and  _594
REMARK  246  A    between atoms: _597  and  _599
REMARK  247  A    between atoms: _599  and  _600
REMARK  248  A    between atoms: _599  and  _602
REMARK  249  A    between atoms: _602  and  _603
REMARK  250  A    between atoms: _605  and  _607
REMARK  251  A    between atoms: _607  and  _608
REMARK  252  A    between atoms: _607  and  _610
REMARK  253  A    between atoms: _610  and  _611
REMARK  254  A    between atoms: _621  and  _623
REMARK  255  A    between atoms: _623  and  _624
REMARK  256  A    between atoms: _623  and  _626
REMARK  257  A    between atoms: _626  and  _627
REMARK  258  A    between atoms: _629  and  _631
REMARK  259  A    between atoms: _631  and  _632
REMARK  260  A    between atoms: _631  and  _634
REMARK  261  A    between atoms: _637  and  _639
REMARK  262  A    between atoms: _639  and  _640
REMARK  263  A    between atoms: _639  and  _642
REMARK  264  A    between atoms: _642  and  _643
REMARK  265  A    between atoms: _646  and  _648
REMARK  266  A    between atoms: _648  and  _649
REMARK  267  A    between atoms: _648  and  _651
REMARK  268  A    between atoms: _651  and  _652
REMARK                            x       y       z     vdW  Elec       q    Type
REMARK                         _______ _______ _______ _____ _____    ______ ____
ROOT
ATOM      1  CA  LEU A   1      -7.859   2.594 -17.966  0.00  0.00    +0.133 C 
ENDROOT
BRANCH   1   2
ATOM      2  N   LEU A   1      -7.271   2.384 -19.295  0.00  0.00    -0.239 NA
ATOM      3  H   LEU A   1      -6.388   2.872 -19.547  0.00  0.00    +0.142 HD
ENDBRANCH   1   2
BRANCH   1   4
ATOM      4  C   LEU A   1      -9.140   3.443 -18.147  0.00  0.00    +0.224 C 
ATOM      5  O   LEU A   1      -9.129   4.426 -18.872  0.00  0.00    -0.287 OA
ENDBRANCH   1   4
BRANCH   1   6
ATOM      6  CB  LEU A   1      -6.839   3.331 -17.075  0.00  0.00    +0.025 C 
BRANCH   6   7
ATOM      7  CG  LEU A   1      -6.850   3.256 -15.542  0.00  0.00    +0.002 C 
ATOM      8  CD2 LEU A   1      -6.947   1.844 -15.011  0.00  0.00    +0.000 C 
ATOM      9  CD1 LEU A   1      -5.587   3.912 -15.052  0.00  0.00    +0.000 C 
ENDBRANCH   6   7
ENDBRANCH   1   6
TORSDOF 4
REMARK  Name = ../refined-set-2016/3f8c/3f8c_pocket.pdb
REMARK  268 active torsions:
REMARK  status: ('A' for Active; 'I' for Inactive)
REMARK    1  A    between atoms: _1  and  _5
REMARK    2  A    between atoms: _5  and  _6
REMARK    3  A    between atoms: _5  and  _8
REMARK    4  A    between atoms: _8  and  _9
REMARK    5  A    between atoms: _9  and  _10
REMARK    6  A    between atoms: _14  and  _15
REMARK    7  A    between atoms: _20  and  _22
REMARK    8  A    between atoms: _22  and  _23
REMARK    9  A    between atoms: _22  and  _25
REMARK   10  A    between atoms: _25  and  _26
REMARK   11  A    between atoms: _26  and  _27
REMARK   12  A    between atoms: _29  and  _31
REMARK   13  A    between atoms: _31  and  _32
REMARK   14  A    between atoms: _31  and  _34
REMARK   15  A    between atoms: _34  and  _35
REMARK   16  A    between atoms: _35  and  _36
REMARK   17  A    between atoms: _36  and  _37
REMARK   18  A    between atoms: _46  and  _48
REMARK   19  A    between atoms: _48  and  _49
REMARK   20  A    between atoms: _52  and  _54
REMARK   21  A    between atoms: _54  and  _55
REMARK   22  A    between atoms: _54  and  _57
REMARK   23  A    between atoms: _57  and  _58
REMARK   24  A    between atoms: _58  and  _59
REMARK   25  A    between atoms: _64  and  _66
REMARK   26  A    between atoms: _66  and  _67
REMARK   27  A    between atoms: _66  and  _69
REMARK   28  A    between atoms: _69  and  _70
REMARK   29  A    between atoms: _73  and  _75
REMARK   30  A    between atoms: _75  and  _76
REMARK   31  A    between atoms: _75  and  _78
REMARK   32  A    between atoms: _78  and  _79
REMARK   33  A    between atoms: _84  and  _86
REMARK   34  A    between atoms: _86  and  _87
REMARK   35  A    between atoms: _86  and  _89
REMARK   36  A    between atoms: _92  and  _94
REMARK   37  A    between atoms: _94  and  _95
REMARK   38  A    between atoms: _94  and  _97
REMARK   39  A    between atoms: _97  and  _98
REMARK   40  A    between atoms: _101  and  _103
REMARK   41  A    between atoms: _103  and  _104
REMARK   42  A    between atoms: _103  and  _106
REMARK   43  A    between atoms: _106  and  _107
REMARK   44  A    between atoms: _110  and  _112
REMARK   45  A    between atoms: _112  and  _113
REMARK   46  A    between atoms: _112  and  _115
REMARK   47  A    between atoms: _115  and  _116
REMARK   48  A    between atoms: _121  and  _123
REMARK   49  A    between atoms: _123  and  _124
REMARK   50  A    between atoms: _123  and  _126
REMARK   51  A    between atoms: _126  and  _127
REMARK   52  A    between atoms: _127  and  _128
REMARK   53  A    between atoms: _128  and  _129
REMARK   54  A    between atoms: _129  and  _130
REMARK   55  A    between atoms: _134  and  _136
REMARK   56  A    between atoms: _136  and  _137
REMARK   57  A    between atoms: _136  and  _139
REMARK   58  A    between atoms: _139  and  _140
REMARK   59  A    between atoms: _140  and  _141
REMARK   60  A    between atoms: _141  and  _142
REMARK   61  A    between atoms: _151  and  _153
REMARK   62  A    between atoms: _153  and  _154
REMARK   63  A    between atoms: _153  and  _156
REMARK   64  A    between atoms: _156  and  _157
REMARK   65  A    between atoms: _160  and  _162
REMARK   66  A    between atoms: _162  and  _163
REMARK   67  A    between atoms: _162  and  _165
REMARK   68  A    between atoms: _165  and  _166
REMARK   69  A    between atoms: _169  and  _171
REMARK   70  A    between atoms: _171  and  _172
REMARK   71  A    between atoms: _171  and  _174
REMARK   72  A    between atoms: _174  and  _175
REMARK   73  A    between atoms: _178  and  _180
REMARK   74  A    between atoms: _180  and  _181
REMARK   75  A    between atoms: _180  and  _183
REMARK   76  A    between atoms: _183  and  _184
REMARK   77  A    between atoms: _187  and  _189
REMARK   78  A    between atoms: _189  and  _190
REMARK   79  A    between atoms: _189  and  _192
REMARK   80  A    between atoms: _192  and  _193
REMARK   81  A    between atoms: _196  and  _198
REMARK   82  A    between atoms: _198  and  _199
REMARK   83  A    between atoms: _201  and  _203
REMARK   84  A    between atoms: _203  and  _204
REMARK   85  A    between atoms: _203  and  _206
REMARK   86  A    between atoms: _206  and  _207
REMARK   87  A    between atoms: _212  and  _214
REMARK   88  A    between atoms: _214  and  _215
REMARK   89  A    between atoms: _214  and  _217
REMARK   90  A    between atoms: _217  and  _218
REMARK   91  A    between atoms: _218  and  _219
REMARK   92  A    between atoms: _222  and  _224
REMARK   93  A    between atoms: _224  and  _225
REMARK   94  A    between atoms: _224  and  _227
REMARK   95  A    between atoms: _227  and  _228
REMARK   96  A    between atoms: _233  and  _235
REMARK   97  A    between atoms: _235  and  _236
REMARK   98  A    between atoms: _235  and  _238
REMARK   99  A    between atoms: _238  and  _239
REMARK  100  A    between atoms: _239  and  _240
REMARK  101  A    between atoms: _242  and  _244
REMARK  102  A    between atoms: _244  and  _245
REMARK  103  A    between atoms: _244  and  _247
REMARK  104  A    between atoms: _247  and  _248
REMARK  105  A    between atoms: _248  and  _249
REMARK  106  A    between atoms: _249  and  _250
REMARK  107  A    between atoms: _259  and  _261
REMARK  108  A    between atoms: _261  and  _262
REMARK  109  A    between atoms: _261  and  _264
REMARK  110  A    between atoms: _264  and  _265
REMARK  111  A    between atoms: _268  and  _270
REMARK  112  A    between atoms: _270  and  _271
REMARK  113  A    between atoms: _274  and  _276
REMARK  114  A    between atoms: _276  and  _277
REMARK  115  A    between atoms: _276  and  _279
REMARK  116  A    between atoms: _279  and  _280
REMARK  117  A    between atoms: _286  and  _288
REMARK  118  A    between atoms: _288  and  _289
REMARK  119  A    between atoms: _288  and  _291
REMARK  120  A    between atoms: _291  and  _292
REMARK  121  A    between atoms: _292  and  _293
REMARK  122  A    between atoms: _296  and  _298
REMARK  123  A    between atoms: _298  and  _299
REMARK  124  A    between atoms: _298  and  _301
REMARK  125  A    between atoms: _301  and  _302
REMARK  126  A    between atoms: _304  and  _306
REMARK  127  A    between atoms: _306  and  _307
REMARK  128  A    between atoms: _306  and  _309
REMARK  129  A    between atoms: _309  and  _310
REMARK  130  A    between atoms: _320  and  _322
REMARK  131  A    between atoms: _322  and  _323
REMARK  132  A    between atoms: _322  and  _325
REMARK  133  A    between atoms: _325  and  _326
REMARK  134  A    between atoms: _328  and  _330
REMARK  135  A    between atoms: _330  and  _331
REMARK  136  A    between atoms: _330  and  _333
REMARK  137  A    between atoms: _336  and  _338
REMARK  138  A    between atoms: _338  and  _339
REMARK  139  A    between atoms: _338  and  _341
REMARK  140  A    between atoms: _341  and  _342
REMARK  141  A    between atoms: _345  and  _347
REMARK  142  A    between atoms: _347  and  _348
REMARK  143  A    between atoms: _347  and  _350
REMARK  144  A    between atoms: _350  and  _351
REMARK  145  A    between atoms: _354  and  _358
REMARK  146  A    between atoms: _358  and  _359
REMARK  147  A    between atoms: _358  and  _361
REMARK  148  A    between atoms: _361  and  _362
REMARK  149  A    between atoms: _362  and  _363
REMARK  150  A    between atoms: _367  and  _368
REMARK  151  A    between atoms: _373  and  _375
REMARK  152  A    between atoms: _375  and  _376
REMARK  153  A    between atoms: _375  and  _378
REMARK  154  A    between atoms: _378  and  _379
REMARK  155  A    between atoms: _379  and  _380
REMARK  156  A    between atoms: _382  and  _384
REMARK  157  A    between atoms: _384  and  _385
REMARK  158  A    between atoms: _388  and  _390
REMARK  159  A    between atoms: _390  and  _391
REMARK  160  A    between atoms: _390  and  _393
REMARK  161  A    between atoms: _393  and  _394
REMARK  162  A    between atoms: _394  and  _395
REMARK  163  A    between atoms: _400  and  _402
REMARK  164  A    between atoms: _402  and  _403
REMARK  165  A    between atoms: _402  and  _405
REMARK  166  A    between atoms: _405  and  _406
REMARK  167  A    between atoms: _411  and  _413
REMARK  168  A    between atoms: _413  and  _414
REMARK  169  A    between atoms: _413  and  _416
REMARK  170  A    between atoms: _419  and  _421
REMARK  171  A    between atoms: _421  and  _422
REMARK  172  A    between atoms: _421  and  _424
REMARK  173  A    between atoms: _424  and  _425
REMARK  174  A    between atoms: _428  and  _430
REMARK  175  A    between atoms: _430  and  _431
REMARK  176  A    between atoms: _430  and  _433
REMARK  177  A    between atoms: _433  and  _434
REMARK  178  A    between atoms: _437  and  _439
REMARK  179  A    between atoms: _439  and  _440
REMARK  180  A    between atoms: _439  and  _442
REMARK  181  A    between atoms: _442  and  _443
REMARK  182  A    between atoms: _448  and  _450
REMARK  183  A    between atoms: _450  and  _451
REMARK  184  A    between atoms: _450  and  _453
REMARK  185  A    between atoms: _453  and  _454
REMARK  186  A    between atoms: _454  and  _455
REMARK  187  A    between atoms: _455  and  _456
REMARK  188  A    between atoms: _456  and  _457
REMARK  189  A    between atoms: _461  and  _463
REMARK  190  A    between atoms: _463  and  _464
REMARK  191  A    between atoms: _463  and  _466
REMARK  192  A    between atoms: _466  and  _467
REMARK  193  A    between atoms: _470  and  _472
REMARK  194  A    between atoms: _472  and  _473
REMARK  195  A    between atoms: _472  and  _475
REMARK  196  A    between atoms: _475  and  _476
REMARK  197  A    between atoms: _479  and  _481
REMARK  198  A    between atoms: _481  and  _482
REMARK  199  A    between atoms: _481  and  _484
REMARK  200  A    between atoms: _484  and  _485
REMARK  201  A    between atoms: _488  and  _490
REMARK  202  A    between atoms: _490  and  _491
REMARK  203  A    between atoms: _490  and  _493
REMARK  204  A    between atoms: _493  and  _494
REMARK  205  A    between atoms: _497  and  _499
REMARK  206  A    between atoms: _499  and  _500
REMARK  207  A    between atoms: _502  and  _504
REMARK  208  A    between atoms: _504  and  _505
REMARK  209  A    between atoms: _504  and  _507
REMARK  210  A    between atoms: _507  and  _508
REMARK  211  A    between atoms: _513  and  _515
REMARK  212  A    between atoms: _515  and  _516
REMARK  213  A    between atoms: _515  and  _518
REMARK  214  A    between atoms: _518  and  _519
REMARK  215  A    between atoms: _519  and  _520
REMARK  216  A    between atoms: _523  and  _525
REMARK  217  A    between atoms: _525  and  _526
REMARK  218  A    between atoms: _525  and  _528
REMARK  219  A    between atoms: _528  and  _529
REMARK  220  A    between atoms: _534  and  _536
REMARK  221  A    between atoms: _536  and  _537
REMARK  222  A    between atoms: _536  and  _539
REMARK  223  A    between atoms: _539  and  _540
REMARK  224  A    between atoms: _540  and  _541
REMARK  225  A    between atoms: _543  and  _545
REMARK  226  A    between atoms: _545  and  _546
REMARK  227  A    between atoms: _545  and  _548
REMARK  228  A    between atoms: _548  and  _549
REMARK  229  A    between atoms: _549  and  _550
REMARK  230  A    between atoms: _550  and  _551
REMARK  231  A    between atoms: _560  and  _562
REMARK  232  A    between atoms: _562  and  _563
REMARK  233  A    between atoms: _562  and  _565
REMARK  234  A    between atoms: _565  and  _566
REMARK  235  A    between atoms: _569  and  _571
REMARK  236  A    between atoms: _571  and  _572
REMARK  237  A    between atoms: _575  and  _577
REMARK  238  A    between atoms: _577  and  _578
REMARK  239  A    between atoms: _577  and  _580
REMARK  240  A    between atoms: _580  and  _581
REMARK  241  A    between atoms: _587  and  _589
REMARK  242  A    between atoms: _589  and  _590
REMARK  243  A    between atoms: _589  and  _592
REMARK  244  A    between atoms: _592  and  _593
REMARK  245  A    between atoms: _593  and  _594
REMARK  246  A    between atoms: _597  and  _599
REMARK  247  A    between atoms: _599  and  _600
REMARK  248  A    between atoms: _599  and  _602
REMARK  249  A    between atoms: _602  and  _603
REMARK  250  A    between atoms: _605  and  _607
REMARK  251  A    between atoms: _607  and  _608
REMARK  252  A    between atoms: _607  and  _610
REMARK  253  A    between atoms: _610  and  _611
REMARK  254  A    between atoms: _621  and  _623
REMARK  255  A    between atoms: _623  and  _624
REMARK  256  A    between atoms: _623  and  _626
REMARK  257  A    between atoms: _626  and  _627
REMARK  258  A    between atoms: _629  and  _631
REMARK  259  A    between atoms: _631  and  _632
REMARK  260  A    between atoms: _631  and  _634
REMARK  261  A    between atoms: _637  and  _639
REMARK  262  A    between atoms: _639  and  _640
REMARK  263  A    between atoms: _639  and  _642
REMARK  264  A    between atoms: _642  and  _643
REMARK  265  A    between atoms: _646  and  _648
REMARK  266  A    between atoms: _648  and  _649
REMARK  267  A    between atoms: _648  and  _651
REMARK  268  A    between atoms: _651  and  _652
REMARK                            x       y       z     vdW  Elec       q    Type
REMARK                         _______ _______ _______ _____ _____    ______ ____
ROOT
ATOM      1  C   ARG A   7      -7.157   7.803  -5.727  0.00  0.00    +0.241 C 
ATOM      2  O   ARG A   7      -6.385   8.167  -4.850  0.00  0.00    -0.273 OA
ATOM      3  N   LEU A   8      -8.353   7.279  -5.467  0.00  0.00    -0.297 N 
ATOM      4  H   LEU A   8      -8.946   6.955  -6.257  0.00  0.00    +0.150 HD
ENDROOT
BRANCH   1   5
ATOM      5  CA  ARG A   7      -6.770   7.923  -7.207  0.00  0.00    +0.149 C 
BRANCH   5   8
ATOM      6  C   MET A   6      -6.422   5.545  -7.537  0.00  0.00    +0.241 C 
ATOM      7  O   MET A   6      -5.586   5.508  -6.624  0.00  0.00    -0.273 OA
ATOM      8  N   ARG A   7      -7.028   6.670  -7.913  0.00  0.00    -0.297 N 
ATOM      9  H   ARG A   7      -7.690   6.656  -8.715  0.00  0.00    +0.150 HD
BRANCH   6  10
ATOM     10  CA  MET A   6      -6.760   4.298  -8.335  0.00  0.00    +0.149 C 
BRANCH  10  13
ATOM     11  C   ASN A   5      -9.081   4.133  -7.614  0.00  0.00    +0.241 C 
ATOM     12  O   ASN A   5      -8.746   4.021  -6.442  0.00  0.00    -0.273 OA
ATOM     13  N   MET A   6      -8.202   4.205  -8.611  0.00  0.00    -0.297 N 
ATOM     14  H   MET A   6      -8.538   4.195  -9.595  0.00  0.00    +0.150 HD
BRANCH  11  15
ATOM     15  CA  ASN A   5     -10.533   4.173  -7.991  0.00  0.00    +0.158 C 
BRANCH  15  18
ATOM     16  C   GLU A   4     -10.547   6.496  -8.756  0.00  0.00    +0.241 C 
ATOM     17  O   GLU A   4     -10.093   6.900  -7.673  0.00  0.00    -0.273 OA
ATOM     18  N   ASN A   5     -10.825   5.213  -8.988  0.00  0.00    -0.297 N 
ATOM     19  H   ASN A   5     -11.258   4.942  -9.894  0.00  0.00    +0.150 HD
BRANCH  16  20
ATOM     20  CA  GLU A   4     -10.806   7.474  -9.915  0.00  0.00    +0.149 C 
BRANCH  20  23
ATOM     21  C   HIS A   3      -9.001   6.791 -11.390  0.00  0.00    +0.241 C 
ATOM     22  O   HIS A   3      -8.153   7.072 -10.556  0.00  0.00    -0.273 OA
ATOM     23  N   GLU A   4     -10.304   6.975 -11.183  0.00  0.00    -0.297 N 
ATOM     24  H   GLU A   4     -10.976   6.757 -11.946  0.00  0.00    +0.150 HD
BRANCH  21  25
ATOM     25  CA  HIS A   3      -8.597   6.286 -12.776  0.00  0.00    +0.155 C 
BRANCH  25  28
ATOM     26  C   GLY A   2      -9.631   4.038 -12.599  0.00  0.00    +0.243 C 
ATOM     27  O   GLY A   2      -9.036   3.764 -11.555  0.00  0.00    -0.273 OA
ATOM     28  N   HIS A   3      -9.472   5.203 -13.258  0.00  0.00    -0.297 N 
ATOM     29  H   HIS A   3      -9.991   5.344 -14.148  0.00  0.00    +0.150 HD
BRANCH  26  30
ATOM     30  CA  GLY A   2     -10.621   3.046 -13.214  0.00  0.00    +0.176 C 
BRANCH  30  33
ATOM     31  C   ILE A   1     -12.611   4.313 -12.646  0.00  0.00    +0.238 C 
ATOM     32  O   ILE A   1     -12.287   4.358 -11.457  0.00  0.00    -0.274 OA
ATOM     33  N   GLY A   2     -11.872   3.705 -13.571  0.00  0.00    -0.296 N 
ATOM     34  H   GLY A   2     -12.191   3.700 -14.561  0.00  0.00    +0.150 HD
BRANCH  31  35
ATOM     35  CA  ILE A   1     -13.891   4.991 -13.132  0.00  0.00    +0.145 C 
BRANCH  35  36
ATOM     36  N   ILE A   1     -13.650   5.663 -14.432  0.00  0.00    -0.238 NA
ATOM     37  H   ILE A   1     -14.194   5.372 -15.270  0.00  0.00    +0.142 HD
ENDBRANCH  35  36
BRANCH  35  38
ATOM     38  CB  ILE A   1     -15.039   3.947 -13.213  0.00  0.00    +0.025 C 
ATOM     39  CG2 ILE A   1     -15.017   3.033 -12.007  0.00  0.00    +0.002 C 
BRANCH  38  40
ATOM     40  CG1 ILE A   1     -16.389   4.651 -13.300  0.00  0.00    +0.002 C 
ATOM     41  CD1 ILE A   1     -16.776   5.390 -12.009  0.00  0.00    +0.000 C 
ENDBRANCH  38  40
ENDBRANCH  35  38
ENDBRANCH  31  35
ENDBRANCH  30  33
ENDBRANCH  26  30
ENDBRANCH  25  28
BRANCH  25  42
ATOM     42  CB  HIS A   3      -8.634   7.478 -13.743  0.00  0.00    +0.076 C 
BRANCH  42  43
ATOM     43  CG  HIS A   3      -7.644   7.392 -14.853  0.00  0.00    +0.082 A 
ATOM     44  CD2 HIS A   3      -6.309   7.624 -14.878  0.00  0.00    +0.115 A 
ATOM     45  NE2 HIS A   3      -5.890   7.439 -16.178  0.00  0.00    -0.221 NA
ATOM     46  CE1 HIS A   3      -6.933   7.121 -16.926  0.00  0.00    +0.199 A 
ATOM     47  ND1 HIS A   3      -8.008   7.099 -16.154  0.00  0.00    -0.227 NA
ENDBRANCH  42  43
ENDBRANCH  25  42
ENDBRANCH  21  25
ENDBRANCH  20  23
BRANCH  20  48
ATOM     48  CB  GLU A   4     -12.292   7.801 -10.019  0.00  0.00    +0.041 C 
BRANCH  48  49
ATOM     49  CG  GLU A   4     -12.793   8.652  -8.885  0.00  0.00    +0.116 C 
BRANCH  49  50
ATOM     50  CD  GLU A   4     -12.007   9.967  -8.748  0.00  0.00    +0.365 C 
ATOM     51  OE2 GLU A   4     -11.938  10.494  -7.619  0.00  0.00    -0.246 OA
ATOM     52  OE1 GLU A   4     -11.468  10.471  -9.778  0.00  0.00    -0.246 OA
ENDBRANCH  49  50
ENDBRANCH  48  49
ENDBRANCH  20  48
ENDBRANCH  16  20
ENDBRANCH  15  18
BRANCH  15  53
ATOM     53  CB  ASN A   5     -10.981   2.803  -8.487  0.00  0.00    +0.114 C 
BRANCH  53  54
ATOM     54  CG  ASN A   5     -12.463   2.635  -8.417  0.00  0.00    +0.222 C 
ATOM     55  OD1 ASN A   5     -13.143   3.412  -7.757  0.00  0.00    -0.275 OA
ATOM     56  ND2 ASN A   5     -12.988   1.625  -9.104  0.00  0.00    -0.329 N 
ATOM     57 HD21 ASN A   5     -14.016   1.469  -9.095  0.00  0.00    +0.145 HD
ATOM     58 HD22 ASN A   5     -12.370   0.991  -9.650  0.00  0.00    +0.145 HD
ENDBRANCH  53  54
ENDBRANCH  15  53
ENDBRANCH  11  15
ENDBRANCH  10  13
BRANCH  10  59
ATOM     59  CB  MET A   6      -5.966   4.323  -9.621  0.00  0.00    +0.041 C 
BRANCH  59  60
ATOM     60  CG  MET A   6      -5.984   3.030 -10.387  0.00  0.00    +0.060 C 
BRANCH  60  61
ATOM     61  SD  MET A   6      -4.803   3.141 -11.743  0.00  0.00    -0.139 S 
ATOM     62  CE  MET A   6      -3.271   2.716 -10.857  0.00  0.00    +0.069 C 
ENDBRANCH  60  61
ENDBRANCH  59  60
ENDBRANCH  10  59
ENDBRANCH   6  10
ENDBRANCH   5   8
BRANCH   5  63
ATOM     63  CB  ARG A   7      -7.521   9.096  -7.859  0.00  0.00    +0.033 C 
BRANCH  63  64
ATOM     64  CG  ARG A   7      -7.136  10.455  -7.258  0.00  0.00    +0.045 C 
BRANCH  64  65
ATOM     65  CD  ARG A   7      -7.875  11.631  -7.925  0.00  0.00    +0.174 C 
BRANCH  65  66
ATOM     66  NE  ARG A   7      -9.223  11.784  -7.394  0.00  0.00    -0.265 N 
ATOM     67  CZ  ARG A   7      -9.496  12.055  -6.116  0.00  0.00    +0.342 C 
ATOM     68  NH2 ARG A   7      -8.503  12.202  -5.235  0.00  0.00    -0.292 N 
ATOM     69 HH21 ARG A   7      -8.718  12.413  -4.240  0.00  0.00    +0.255 HD
ATOM     70 HH22 ARG A   7      -7.515  12.105  -5.544  0.00  0.00    +0.255 HD
ATOM     71  NH1 ARG A   7     -10.760  12.176  -5.715  0.00  0.00    -0.292 N 
ATOM     72 HH11 ARG A   7     -10.972  12.387  -4.719  0.00  0.00    +0.255 HD
ATOM     73 HH12 ARG A   7     -11.536  12.059  -6.398  0.00  0.00    +0.255 HD
ATOM     74  HE  ARG A   7     -10.022  11.675  -8.051  0.00  0.00    +0.259 HD
ENDBRANCH  65  66
ENDBRANCH  64  65
ENDBRANCH  63  64
ENDBRANCH   5  63
ENDBRANCH   1   5
BRANCH   3  75
ATOM     75  CA  LEU A   8      -8.852   7.147  -4.108  0.00  0.00    +0.149 C 
BRANCH  75  76
ATOM     76  C   LEU A   8      -8.032   6.148  -3.304  0.00  0.00    +0.241 C 
ATOM     77  O   LEU A   8      -7.734   6.391  -2.134  0.00  0.00    -0.273 OA
ATOM     78  N   ALA A   9      -7.688   5.011  -3.922  0.00  0.00    -0.297 N 
ATOM     79  H   ALA A   9      -8.049   4.821  -4.879  0.00  0.00    +0.150 HD
BRANCH  78  80
ATOM     80  CA  ALA A   9      -6.812   4.028  -3.277  0.00  0.00    +0.149 C 
ATOM     81  CB  ALA A   9      -6.618   2.790  -4.175  0.00  0.00    +0.031 C 
BRANCH  80  82
ATOM     82  C   ALA A   9      -5.463   4.660  -2.942  0.00  0.00    +0.241 C 
ATOM     83  O   ALA A   9      -4.938   4.484  -1.852  0.00  0.00    -0.273 OA
ATOM     84  N   PHE A  10      -4.901   5.385  -3.892  0.00  0.00    -0.297 N 
ATOM     85  H   PHE A  10      -5.392   5.505  -4.801  0.00  0.00    +0.150 HD
BRANCH  84  86
ATOM     86  CA  PHE A  10      -3.601   6.021  -3.688  0.00  0.00    +0.153 C 
BRANCH  86  87
ATOM     87  C   PHE A  10      -3.669   7.074  -2.583  0.00  0.00    +0.241 C 
ATOM     88  O   PHE A  10      -2.784   7.165  -1.735  0.00  0.00    -0.273 OA
ATOM     89  N   GLU A  11      -4.720   7.879  -2.626  0.00  0.00    -0.297 N 
ATOM     90  H   GLU A  11      -5.414   7.746  -3.389  0.00  0.00    +0.150 HD
BRANCH  89  91
ATOM     91  CA  GLU A  11      -4.952   8.944  -1.655  0.00  0.00    +0.149 C 
BRANCH  91  92
ATOM     92  C   GLU A  11      -5.088   8.356  -0.255  0.00  0.00    +0.241 C 
ATOM     93  O   GLU A  11      -4.502   8.854   0.694  0.00  0.00    -0.273 OA
ATOM     94  N   SER A  12      -5.885   7.301  -0.122  0.00  0.00    -0.295 N 
ATOM     95  H   SER A  12      -6.306   6.856  -0.963  0.00  0.00    +0.150 HD
BRANCH  94  96
ATOM     96  CA  SER A  12      -6.168   6.767   1.209  0.00  0.00    +0.178 C 
BRANCH  96  97
ATOM     97  C   SER A  12      -4.938   6.054   1.801  0.00  0.00    +0.243 C 
ATOM     98  O   SER A  12      -4.627   6.224   2.967  0.00  0.00    -0.273 OA
ATOM     99  N   TRP A  13      -4.192   5.334   0.964  0.00  0.00    -0.297 N 
ATOM    100  H   TRP A  13      -4.493   5.223  -0.025  0.00  0.00    +0.150 HD
BRANCH  99 101
ATOM    101  CA  TRP A  13      -2.952   4.696   1.420  0.00  0.00    +0.153 C 
BRANCH 101 102
ATOM    102  C   TRP A  13      -1.806   5.683   1.727  0.00  0.00    +0.241 C 
ATOM    103  O   TRP A  13      -0.943   5.391   2.543  0.00  0.00    -0.273 OA
ATOM    104  N   SER A  14      -1.805   6.848   1.080  0.00  0.00    -0.296 N 
ATOM    105  H   SER A  14      -2.489   7.013   0.314  0.00  0.00    +0.150 HD
BRANCH 104 106
ATOM    106  CA  SER A  14      -0.841   7.908   1.440  0.00  0.00    +0.166 C 
BRANCH 106 107
ATOM    107  CB  SER A  14      -1.167   8.495   2.820  0.00  0.00    +0.229 C 
ATOM    108  OG  SER A  14      -0.260   8.812   3.608  0.00  0.00    -0.286 OA
ENDBRANCH 106 107
BRANCH 106 109
ATOM    109  C   SER A  14      -0.828   9.024   0.393  0.00  0.00    +0.165 C 
BRANCH 109 110
ATOM    110  O   SER A  14      -0.367   8.530  -0.837  0.00  0.00    -0.380 OA
ATOM    111  H   SER A  14      -0.965   7.804  -1.145  0.00  0.00    +0.211 HD
ENDBRANCH 109 110
ENDBRANCH 106 109
ENDBRANCH 104 106
ENDBRANCH 101 102
BRANCH 101 112
ATOM    112  CB  TRP A  13      -2.489   3.606   0.443  0.00  0.00    +0.057 C 
BRANCH 112 113
ATOM    113  CG  TRP A  13      -3.270   2.328   0.574  0.00  0.00    -0.002 A 
ATOM    114  CD2 TRP A  13      -3.208   1.375   1.667  0.00  0.00    +0.013 A 
ATOM    115  CE3 TRP A  13      -2.460   1.298   2.855  0.00  0.00    +0.001 A 
ATOM    116  CZ3 TRP A  13      -2.650   0.201   3.699  0.00  0.00    +0.000 A 
ATOM    117  CH2 TRP A  13      -3.561  -0.819   3.370  0.00  0.00    +0.001 A 
ATOM    118  CZ2 TRP A  13      -4.288  -0.779   2.204  0.00  0.00    +0.017 A 
ATOM    119  CE2 TRP A  13      -4.103   0.336   1.361  0.00  0.00    +0.056 A 
ATOM    120  NE1 TRP A  13      -4.680   0.639   0.152  0.00  0.00    -0.352 N 
ATOM    121  HE1 TRP A  13      -5.388   0.058  -0.341  0.00  0.00    +0.166 HD
ATOM    122  CD1 TRP A  13      -4.169   1.841  -0.305  0.00  0.00    +0.068 A 
ENDBRANCH 112 113
ENDBRANCH 101 112
ENDBRANCH  99 101
ENDBRANCH  96  97
BRANCH  96 123
ATOM    123  CB  SER A  12      -7.437   5.890   1.218  0.00  0.00    +0.166 C 
BRANCH 123 124
ATOM    124  OG  SER A  12      -7.326   4.793   0.337  0.00  0.00    -0.380 OA
ATOM    125  H   SER A  12      -7.185   5.125  -0.585  0.00  0.00    +0.211 HD
ENDBRANCH 123 124
ENDBRANCH  96 123
ENDBRANCH  94  96
ENDBRANCH  91  92
BRANCH  91 126
ATOM    126  CB  GLU A  11      -6.245   9.672  -2.017  0.00  0.00    +0.041 C 
BRANCH 126 127
ATOM    127  CG  GLU A  11      -6.228  11.143  -1.771  0.00  0.00    +0.116 C 
BRANCH 127 128
ATOM    128  CD  GLU A  11      -5.379  11.873  -2.780  0.00  0.00    +0.365 C 
ATOM    129  OE2 GLU A  11      -5.109  13.081  -2.567  0.00  0.00    -0.246 OA
ATOM    130  OE1 GLU A  11      -4.973  11.237  -3.786  0.00  0.00    -0.246 OA
ENDBRANCH 127 128
ENDBRANCH 126 127
ENDBRANCH  91 126
ENDBRANCH  89  91
ENDBRANCH  86  87
BRANCH  86 131
ATOM    131  CB  PHE A  10      -3.138   6.685  -4.972  0.00  0.00    +0.055 C 
BRANCH 131 132
ATOM    132  CG  PHE A  10      -1.857   7.431  -4.829  0.00  0.00    -0.020 A 
ATOM    133  CD2 PHE A  10      -1.852   8.823  -4.720  0.00  0.00    -0.004 A 
ATOM    134  CE2 PHE A  10      -0.654   9.525  -4.575  0.00  0.00    -0.000 A 
ATOM    135  CZ  PHE A  10       0.546   8.841  -4.543  0.00  0.00    -0.000 A 
ATOM    136  CE1 PHE A  10       0.554   7.442  -4.650  0.00  0.00    -0.000 A 
ATOM    137  CD1 PHE A  10      -0.647   6.749  -4.791  0.00  0.00    -0.004 A 
ENDBRANCH 131 132
ENDBRANCH  86 131
ENDBRANCH  84  86
ENDBRANCH  80  82
ENDBRANCH  78  80
ENDBRANCH  75  76
BRANCH  75 138
ATOM    138  CB  LEU A   8     -10.328   6.733  -4.108  0.00  0.00    +0.029 C 
BRANCH 138 139
ATOM    139  CG  LEU A   8     -11.311   7.791  -4.589  0.00  0.00    +0.002 C 
ATOM    140  CD2 LEU A   8     -11.452   8.907  -3.546  0.00  0.00    +0.000 C 
ATOM    141  CD1 LEU A   8     -12.661   7.161  -4.896  0.00  0.00    +0.000 C 
ENDBRANCH 138 139
ENDBRANCH  75 138
ENDBRANCH   3  75
TORSDOF 57
REMARK  Name = ../refined-set-2016/3f8c/3f8c_pocket.pdb
REMARK  268 active torsions:
REMARK  status: ('A' for Active; 'I' for Inactive)
REMARK    1  A    between atoms: _1  and  _5
REMARK    2  A    between atoms: _5  and  _6
REMARK    3  A    between atoms: _5  and  _8
REMARK    4  A    between atoms: _8  and  _9
REMARK    5  A    between atoms: _9  and  _10
REMARK    6  A    between atoms: _14  and  _15
REMARK    7  A    between atoms: _20  and  _22
REMARK    8  A    between atoms: _22  and  _23
REMARK    9  A    between atoms: _22  and  _25
REMARK   10  A    between atoms: _25  and  _26
REMARK   11  A    between atoms: _26  and  _27
REMARK   12  A    between atoms: _29  and  _31
REMARK   13  A    between atoms: _31  and  _32
REMARK   14  A    between atoms: _31  and  _34
REMARK   15  A    between atoms: _34  and  _35
REMARK   16  A    between atoms: _35  and  _36
REMARK   17  A    between atoms: _36  and  _37
REMARK   18  A    between atoms: _46  and  _48
REMARK   19  A    between atoms: _48  and  _49
REMARK   20  A    between atoms: _52  and  _54
REMARK   21  A    between atoms: _54  and  _55
REMARK   22  A    between atoms: _54  and  _57
REMARK   23  A    between atoms: _57  and  _58
REMARK   24  A    between atoms: _58  and  _59
REMARK   25  A    between atoms: _64  and  _66
REMARK   26  A    between atoms: _66  and  _67
REMARK   27  A    between atoms: _66  and  _69
REMARK   28  A    between atoms: _69  and  _70
REMARK   29  A    between atoms: _73  and  _75
REMARK   30  A    between atoms: _75  and  _76
REMARK   31  A    between atoms: _75  and  _78
REMARK   32  A    between atoms: _78  and  _79
REMARK   33  A    between atoms: _84  and  _86
REMARK   34  A    between atoms: _86  and  _87
REMARK   35  A    between atoms: _86  and  _89
REMARK   36  A    between atoms: _92  and  _94
REMARK   37  A    between atoms: _94  and  _95
REMARK   38  A    between atoms: _94  and  _97
REMARK   39  A    between atoms: _97  and  _98
REMARK   40  A    between atoms: _101  and  _103
REMARK   41  A    between atoms: _103  and  _104
REMARK   42  A    between atoms: _103  and  _106
REMARK   43  A    between atoms: _106  and  _107
REMARK   44  A    between atoms: _110  and  _112
REMARK   45  A    between atoms: _112  and  _113
REMARK   46  A    between atoms: _112  and  _115
REMARK   47  A    between atoms: _115  and  _116
REMARK   48  A    between atoms: _121  and  _123
REMARK   49  A    between atoms: _123  and  _124
REMARK   50  A    between atoms: _123  and  _126
REMARK   51  A    between atoms: _126  and  _127
REMARK   52  A    between atoms: _127  and  _128
REMARK   53  A    between atoms: _128  and  _129
REMARK   54  A    between atoms: _129  and  _130
REMARK   55  A    between atoms: _134  and  _136
REMARK   56  A    between atoms: _136  and  _137
REMARK   57  A    between atoms: _136  and  _139
REMARK   58  A    between atoms: _139  and  _140
REMARK   59  A    between atoms: _140  and  _141
REMARK   60  A    between atoms: _141  and  _142
REMARK   61  A    between atoms: _151  and  _153
REMARK   62  A    between atoms: _153  and  _154
REMARK   63  A    between atoms: _153  and  _156
REMARK   64  A    between atoms: _156  and  _157
REMARK   65  A    between atoms: _160  and  _162
REMARK   66  A    between atoms: _162  and  _163
REMARK   67  A    between atoms: _162  and  _165
REMARK   68  A    between atoms: _165  and  _166
REMARK   69  A    between atoms: _169  and  _171
REMARK   70  A    between atoms: _171  and  _172
REMARK   71  A    between atoms: _171  and  _174
REMARK   72  A    between atoms: _174  and  _175
REMARK   73  A    between atoms: _178  and  _180
REMARK   74  A    between atoms: _180  and  _181
REMARK   75  A    between atoms: _180  and  _183
REMARK   76  A    between atoms: _183  and  _184
REMARK   77  A    between atoms: _187  and  _189
REMARK   78  A    between atoms: _189  and  _190
REMARK   79  A    between atoms: _189  and  _192
REMARK   80  A    between atoms: _192  and  _193
REMARK   81  A    between atoms: _196  and  _198
REMARK   82  A    between atoms: _198  and  _199
REMARK   83  A    between atoms: _201  and  _203
REMARK   84  A    between atoms: _203  and  _204
REMARK   85  A    between atoms: _203  and  _206
REMARK   86  A    between atoms: _206  and  _207
REMARK   87  A    between atoms: _212  and  _214
REMARK   88  A    between atoms: _214  and  _215
REMARK   89  A    between atoms: _214  and  _217
REMARK   90  A    between atoms: _217  and  _218
REMARK   91  A    between atoms: _218  and  _219
REMARK   92  A    between atoms: _222  and  _224
REMARK   93  A    between atoms: _224  and  _225
REMARK   94  A    between atoms: _224  and  _227
REMARK   95  A    between atoms: _227  and  _228
REMARK   96  A    between atoms: _233  and  _235
REMARK   97  A    between atoms: _235  and  _236
REMARK   98  A    between atoms: _235  and  _238
REMARK   99  A    between atoms: _238  and  _239
REMARK  100  A    between atoms: _239  and  _240
REMARK  101  A    between atoms: _242  and  _244
REMARK  102  A    between atoms: _244  and  _245
REMARK  103  A    between atoms: _244  and  _247
REMARK  104  A    between atoms: _247  and  _248
REMARK  105  A    between atoms: _248  and  _249
REMARK  106  A    between atoms: _249  and  _250
REMARK  107  A    between atoms: _259  and  _261
REMARK  108  A    between atoms: _261  and  _262
REMARK  109  A    between atoms: _261  and  _264
REMARK  110  A    between atoms: _264  and  _265
REMARK  111  A    between atoms: _268  and  _270
REMARK  112  A    between atoms: _270  and  _271
REMARK  113  A    between atoms: _274  and  _276
REMARK  114  A    between atoms: _276  and  _277
REMARK  115  A    between atoms: _276  and  _279
REMARK  116  A    between atoms: _279  and  _280
REMARK  117  A    between atoms: _286  and  _288
REMARK  118  A    between atoms: _288  and  _289
REMARK  119  A    between atoms: _288  and  _291
REMARK  120  A    between atoms: _291  and  _292
REMARK  121  A    between atoms: _292  and  _293
REMARK  122  A    between atoms: _296  and  _298
REMARK  123  A    between atoms: _298  and  _299
REMARK  124  A    between atoms: _298  and  _301
REMARK  125  A    between atoms: _301  and  _302
REMARK  126  A    between atoms: _304  and  _306
REMARK  127  A    between atoms: _306  and  _307
REMARK  128  A    between atoms: _306  and  _309
REMARK  129  A    between atoms: _309  and  _310
REMARK  130  A    between atoms: _320  and  _322
REMARK  131  A    between atoms: _322  and  _323
REMARK  132  A    between atoms: _322  and  _325
REMARK  133  A    between atoms: _325  and  _326
REMARK  134  A    between atoms: _328  and  _330
REMARK  135  A    between atoms: _330  and  _331
REMARK  136  A    between atoms: _330  and  _333
REMARK  137  A    between atoms: _336  and  _338
REMARK  138  A    between atoms: _338  and  _339
REMARK  139  A    between atoms: _338  and  _341
REMARK  140  A    between atoms: _341  and  _342
REMARK  141  A    between atoms: _345  and  _347
REMARK  142  A    between atoms: _347  and  _348
REMARK  143  A    between atoms: _347  and  _350
REMARK  144  A    between atoms: _350  and  _351
REMARK  145  A    between atoms: _354  and  _358
REMARK  146  A    between atoms: _358  and  _359
REMARK  147  A    between atoms: _358  and  _361
REMARK  148  A    between atoms: _361  and  _362
REMARK  149  A    between atoms: _362  and  _363
REMARK  150  A    between atoms: _367  and  _368
REMARK  151  A    between atoms: _373  and  _375
REMARK  152  A    between atoms: _375  and  _376
REMARK  153  A    between atoms: _375  and  _378
REMARK  154  A    between atoms: _378  and  _379
REMARK  155  A    between atoms: _379  and  _380
REMARK  156  A    between atoms: _382  and  _384
REMARK  157  A    between atoms: _384  and  _385
REMARK  158  A    between atoms: _388  and  _390
REMARK  159  A    between atoms: _390  and  _391
REMARK  160  A    between atoms: _390  and  _393
REMARK  161  A    between atoms: _393  and  _394
REMARK  162  A    between atoms: _394  and  _395
REMARK  163  A    between atoms: _400  and  _402
REMARK  164  A    between atoms: _402  and  _403
REMARK  165  A    between atoms: _402  and  _405
REMARK  166  A    between atoms: _405  and  _406
REMARK  167  A    between atoms: _411  and  _413
REMARK  168  A    between atoms: _413  and  _414
REMARK  169  A    between atoms: _413  and  _416
REMARK  170  A    between atoms: _419  and  _421
REMARK  171  A    between atoms: _421  and  _422
REMARK  172  A    between atoms: _421  and  _424
REMARK  173  A    between atoms: _424  and  _425
REMARK  174  A    between atoms: _428  and  _430
REMARK  175  A    between atoms: _430  and  _431
REMARK  176  A    between atoms: _430  and  _433
REMARK  177  A    between atoms: _433  and  _434
REMARK  178  A    between atoms: _437  and  _439
REMARK  179  A    between atoms: _439  and  _440
REMARK  180  A    between atoms: _439  and  _442
REMARK  181  A    between atoms: _442  and  _443
REMARK  182  A    between atoms: _448  and  _450
REMARK  183  A    between atoms: _450  and  _451
REMARK  184  A    between atoms: _450  and  _453
REMARK  185  A    between atoms: _453  and  _454
REMARK  186  A    between atoms: _454  and  _455
REMARK  187  A    between atoms: _455  and  _456
REMARK  188  A    between atoms: _456  and  _457
REMARK  189  A    between atoms: _461  and  _463
REMARK  190  A    between atoms: _463  and  _464
REMARK  191  A    between atoms: _463  and  _466
REMARK  192  A    between atoms: _466  and  _467
REMARK  193  A    between atoms: _470  and  _472
REMARK  194  A    between atoms: _472  and  _473
REMARK  195  A    between atoms: _472  and  _475
REMARK  196  A    between atoms: _475  and  _476
REMARK  197  A    between atoms: _479  and  _481
REMARK  198  A    between atoms: _481  and  _482
REMARK  199  A    between atoms: _481  and  _484
REMARK  200  A    between atoms: _484  and  _485
REMARK  201  A    between atoms: _488  and  _490
REMARK  202  A    between atoms: _490  and  _491
REMARK  203  A    between atoms: _490  and  _493
REMARK  204  A    between atoms: _493  and  _494
REMARK  205  A    between atoms: _497  and  _499
REMARK  206  A    between atoms: _499  and  _500
REMARK  207  A    between atoms: _502  and  _504
REMARK  208  A    between atoms: _504  and  _505
REMARK  209  A    between atoms: _504  and  _507
REMARK  210  A    between atoms: _507  and  _508
REMARK  211  A    between atoms: _513  and  _515
REMARK  212  A    between atoms: _515  and  _516
REMARK  213  A    between atoms: _515  and  _518
REMARK  214  A    between atoms: _518  and  _519
REMARK  215  A    between atoms: _519  and  _520
REMARK  216  A    between atoms: _523  and  _525
REMARK  217  A    between atoms: _525  and  _526
REMARK  218  A    between atoms: _525  and  _528
REMARK  219  A    between atoms: _528  and  _529
REMARK  220  A    between atoms: _534  and  _536
REMARK  221  A    between atoms: _536  and  _537
REMARK  222  A    between atoms: _536  and  _539
REMARK  223  A    between atoms: _539  and  _540
REMARK  224  A    between atoms: _540  and  _541
REMARK  225  A    between atoms: _543  and  _545
REMARK  226  A    between atoms: _545  and  _546
REMARK  227  A    between atoms: _545  and  _548
REMARK  228  A    between atoms: _548  and  _549
REMARK  229  A    between atoms: _549  and  _550
REMARK  230  A    between atoms: _550  and  _551
REMARK  231  A    between atoms: _560  and  _562
REMARK  232  A    between atoms: _562  and  _563
REMARK  233  A    between atoms: _562  and  _565
REMARK  234  A    between atoms: _565  and  _566
REMARK  235  A    between atoms: _569  and  _571
REMARK  236  A    between atoms: _571  and  _572
REMARK  237  A    between atoms: _575  and  _577
REMARK  238  A    between atoms: _577  and  _578
REMARK  239  A    between atoms: _577  and  _580
REMARK  240  A    between atoms: _580  and  _581
REMARK  241  A    between atoms: _587  and  _589
REMARK  242  A    between atoms: _589  and  _590
REMARK  243  A    between atoms: _589  and  _592
REMARK  244  A    between atoms: _592  and  _593
REMARK  245  A    between atoms: _593  and  _594
REMARK  246  A    between atoms: _597  and  _599
REMARK  247  A    between atoms: _599  and  _600
REMARK  248  A    between atoms: _599  and  _602
REMARK  249  A    between atoms: _602  and  _603
REMARK  250  A    between atoms: _605  and  _607
REMARK  251  A    between atoms: _607  and  _608
REMARK  252  A    between atoms: _607  and  _610
REMARK  253  A    between atoms: _610  and  _611
REMARK  254  A    between atoms: _621  and  _623
REMARK  255  A    between atoms: _623  and  _624
REMARK  256  A    between atoms: _623  and  _626
REMARK  257  A    between atoms: _626  and  _627
REMARK  258  A    between atoms: _629  and  _631
REMARK  259  A    between atoms: _631  and  _632
REMARK  260  A    between atoms: _631  and  _634
REMARK  261  A    between atoms: _637  and  _639
REMARK  262  A    between atoms: _639  and  _640
REMARK  263  A    between atoms: _639  and  _642
REMARK  264  A    between atoms: _642  and  _643
REMARK  265  A    between atoms: _646  and  _648
REMARK  266  A    between atoms: _648  and  _649
REMARK  267  A    between atoms: _648  and  _651
REMARK  268  A    between atoms: _651  and  _652
REMARK                            x       y       z     vdW  Elec       q    Type
REMARK                         _______ _______ _______ _____ _____    ______ ____
ROOT
ATOM      1  C   VAL A   1      -0.748   5.914   6.358  0.00  0.00    +0.238 C 
ATOM      2  O   VAL A   1      -0.309   5.864   7.503  0.00  0.00    -0.274 OA
ATOM      3  N   ASP A   2       0.028   6.146   5.295  0.00  0.00    -0.298 N 
ATOM      4  H   ASP A   2      -0.398   6.137   4.346  0.00  0.00    +0.150 HD
ENDROOT
BRANCH   1   5
ATOM      5  CA  VAL A   1      -2.249   5.737   6.089  0.00  0.00    +0.145 C 
BRANCH   5   6
ATOM      6  CB  VAL A   1      -2.551   4.337   5.523  0.00  0.00    +0.025 C 
ATOM      7  CG2 VAL A   1      -1.772   3.261   6.282  0.00  0.00    +0.002 C 
ATOM      8  CG1 VAL A   1      -4.021   4.070   5.605  0.00  0.00    +0.002 C 
ENDBRANCH   5   6
BRANCH   5   9
ATOM      9  N   VAL A   1      -2.717   6.792   5.195  0.00  0.00    -0.238 NA
ATOM     10  H   VAL A   1      -3.213   6.542   4.316  0.00  0.00    +0.142 HD
ENDBRANCH   5   9
ENDBRANCH   1   5
BRANCH   3  11
ATOM     11  CA  ASP A   2       1.464   6.413   5.429  0.00  0.00    +0.148 C 
BRANCH  11  12
ATOM     12  C   ASP A   2       1.744   7.612   6.335  0.00  0.00    +0.227 C 
ATOM     13  O   ASP A   2       2.701   7.606   7.116  0.00  0.00    -0.286 OA
ENDBRANCH  11  12
BRANCH  11  14
ATOM     14  CB  ASP A   2       2.086   6.698   4.052  0.00  0.00    +0.142 C 
BRANCH  14  15
ATOM     15  CG  ASP A   2       2.264   5.457   3.229  0.00  0.00    +0.367 C 
ATOM     16  OD2 ASP A   2       2.456   4.375   3.823  0.00  0.00    -0.246 OA
ATOM     17  OD1 ASP A   2       2.219   5.558   1.981  0.00  0.00    -0.246 OA
ENDBRANCH  14  15
ENDBRANCH  11  14
ENDBRANCH   3  11
TORSDOF 7
REMARK  Name = ../refined-set-2016/3f8c/3f8c_pocket.pdb
REMARK  268 active torsions:
REMARK  status: ('A' for Active; 'I' for Inactive)
REMARK    1  A    between atoms: _1  and  _5
REMARK    2  A    between atoms: _5  and  _6
REMARK    3  A    between atoms: _5  and  _8
REMARK    4  A    between atoms: _8  and  _9
REMARK    5  A    between atoms: _9  and  _10
REMARK    6  A    between atoms: _14  and  _15
REMARK    7  A    between atoms: _20  and  _22
REMARK    8  A    between atoms: _22  and  _23
REMARK    9  A    between atoms: _22  and  _25
REMARK   10  A    between atoms: _25  and  _26
REMARK   11  A    between atoms: _26  and  _27
REMARK   12  A    between atoms: _29  and  _31
REMARK   13  A    between atoms: _31  and  _32
REMARK   14  A    between atoms: _31  and  _34
REMARK   15  A    between atoms: _34  and  _35
REMARK   16  A    between atoms: _35  and  _36
REMARK   17  A    between atoms: _36  and  _37
REMARK   18  A    between atoms: _46  and  _48
REMARK   19  A    between atoms: _48  and  _49
REMARK   20  A    between atoms: _52  and  _54
REMARK   21  A    between atoms: _54  and  _55
REMARK   22  A    between atoms: _54  and  _57
REMARK   23  A    between atoms: _57  and  _58
REMARK   24  A    between atoms: _58  and  _59
REMARK   25  A    between atoms: _64  and  _66
REMARK   26  A    between atoms: _66  and  _67
REMARK   27  A    between atoms: _66  and  _69
REMARK   28  A    between atoms: _69  and  _70
REMARK   29  A    between atoms: _73  and  _75
REMARK   30  A    between atoms: _75  and  _76
REMARK   31  A    between atoms: _75  and  _78
REMARK   32  A    between atoms: _78  and  _79
REMARK   33  A    between atoms: _84  and  _86
REMARK   34  A    between atoms: _86  and  _87
REMARK   35  A    between atoms: _86  and  _89
REMARK   36  A    between atoms: _92  and  _94
REMARK   37  A    between atoms: _94  and  _95
REMARK   38  A    between atoms: _94  and  _97
REMARK   39  A    between atoms: _97  and  _98
REMARK   40  A    between atoms: _101  and  _103
REMARK   41  A    between atoms: _103  and  _104
REMARK   42  A    between atoms: _103  and  _106
REMARK   43  A    between atoms: _106  and  _107
REMARK   44  A    between atoms: _110  and  _112
REMARK   45  A    between atoms: _112  and  _113
REMARK   46  A    between atoms: _112  and  _115
REMARK   47  A    between atoms: _115  and  _116
REMARK   48  A    between atoms: _121  and  _123
REMARK   49  A    between atoms: _123  and  _124
REMARK   50  A    between atoms: _123  and  _126
REMARK   51  A    between atoms: _126  and  _127
REMARK   52  A    between atoms: _127  and  _128
REMARK   53  A    between atoms: _128  and  _129
REMARK   54  A    between atoms: _129  and  _130
REMARK   55  A    between atoms: _134  and  _136
REMARK   56  A    between atoms: _136  and  _137
REMARK   57  A    between atoms: _136  and  _139
REMARK   58  A    between atoms: _139  and  _140
REMARK   59  A    between atoms: _140  and  _141
REMARK   60  A    between atoms: _141  and  _142
REMARK   61  A    between atoms: _151  and  _153
REMARK   62  A    between atoms: _153  and  _154
REMARK   63  A    between atoms: _153  and  _156
REMARK   64  A    between atoms: _156  and  _157
REMARK   65  A    between atoms: _160  and  _162
REMARK   66  A    between atoms: _162  and  _163
REMARK   67  A    between atoms: _162  and  _165
REMARK   68  A    between atoms: _165  and  _166
REMARK   69  A    between atoms: _169  and  _171
REMARK   70  A    between atoms: _171  and  _172
REMARK   71  A    between atoms: _171  and  _174
REMARK   72  A    between atoms: _174  and  _175
REMARK   73  A    between atoms: _178  and  _180
REMARK   74  A    between atoms: _180  and  _181
REMARK   75  A    between atoms: _180  and  _183
REMARK   76  A    between atoms: _183  and  _184
REMARK   77  A    between atoms: _187  and  _189
REMARK   78  A    between atoms: _189  and  _190
REMARK   79  A    between atoms: _189  and  _192
REMARK   80  A    between atoms: _192  and  _193
REMARK   81  A    between atoms: _196  and  _198
REMARK   82  A    between atoms: _198  and  _199
REMARK   83  A    between atoms: _201  and  _203
REMARK   84  A    between atoms: _203  and  _204
REMARK   85  A    between atoms: _203  and  _206
REMARK   86  A    between atoms: _206  and  _207
REMARK   87  A    between atoms: _212  and  _214
REMARK   88  A    between atoms: _214  and  _215
REMARK   89  A    between atoms: _214  and  _217
REMARK   90  A    between atoms: _217  and  _218
REMARK   91  A    between atoms: _218  and  _219
REMARK   92  A    between atoms: _222  and  _224
REMARK   93  A    between atoms: _224  and  _225
REMARK   94  A    between atoms: _224  and  _227
REMARK   95  A    between atoms: _227  and  _228
REMARK   96  A    between atoms: _233  and  _235
REMARK   97  A    between atoms: _235  and  _236
REMARK   98  A    between atoms: _235  and  _238
REMARK   99  A    between atoms: _238  and  _239
REMARK  100  A    between atoms: _239  and  _240
REMARK  101  A    between atoms: _242  and  _244
REMARK  102  A    between atoms: _244  and  _245
REMARK  103  A    between atoms: _244  and  _247
REMARK  104  A    between atoms: _247  and  _248
REMARK  105  A    between atoms: _248  and  _249
REMARK  106  A    between atoms: _249  and  _250
REMARK  107  A    between atoms: _259  and  _261
REMARK  108  A    between atoms: _261  and  _262
REMARK  109  A    between atoms: _261  and  _264
REMARK  110  A    between atoms: _264  and  _265
REMARK  111  A    between atoms: _268  and  _270
REMARK  112  A    between atoms: _270  and  _271
REMARK  113  A    between atoms: _274  and  _276
REMARK  114  A    between atoms: _276  and  _277
REMARK  115  A    between atoms: _276  and  _279
REMARK  116  A    between atoms: _279  and  _280
REMARK  117  A    between atoms: _286  and  _288
REMARK  118  A    between atoms: _288  and  _289
REMARK  119  A    between atoms: _288  and  _291
REMARK  120  A    between atoms: _291  and  _292
REMARK  121  A    between atoms: _292  and  _293
REMARK  122  A    between atoms: _296  and  _298
REMARK  123  A    between atoms: _298  and  _299
REMARK  124  A    between atoms: _298  and  _301
REMARK  125  A    between atoms: _301  and  _302
REMARK  126  A    between atoms: _304  and  _306
REMARK  127  A    between atoms: _306  and  _307
REMARK  128  A    between atoms: _306  and  _309
REMARK  129  A    between atoms: _309  and  _310
REMARK  130  A    between atoms: _320  and  _322
REMARK  131  A    between atoms: _322  and  _323
REMARK  132  A    between atoms: _322  and  _325
REMARK  133  A    between atoms: _325  and  _326
REMARK  134  A    between atoms: _328  and  _330
REMARK  135  A    between atoms: _330  and  _331
REMARK  136  A    between atoms: _330  and  _333
REMARK  137  A    between atoms: _336  and  _338
REMARK  138  A    between atoms: _338  and  _339
REMARK  139  A    between atoms: _338  and  _341
REMARK  140  A    between atoms: _341  and  _342
REMARK  141  A    between atoms: _345  and  _347
REMARK  142  A    between atoms: _347  and  _348
REMARK  143  A    between atoms: _347  and  _350
REMARK  144  A    between atoms: _350  and  _351
REMARK  145  A    between atoms: _354  and  _358
REMARK  146  A    between atoms: _358  and  _359
REMARK  147  A    between atoms: _358  and  _361
REMARK  148  A    between atoms: _361  and  _362
REMARK  149  A    between atoms: _362  and  _363
REMARK  150  A    between atoms: _367  and  _368
REMARK  151  A    between atoms: _373  and  _375
REMARK  152  A    between atoms: _375  and  _376
REMARK  153  A    between atoms: _375  and  _378
REMARK  154  A    between atoms: _378  and  _379
REMARK  155  A    between atoms: _379  and  _380
REMARK  156  A    between atoms: _382  and  _384
REMARK  157  A    between atoms: _384  and  _385
REMARK  158  A    between atoms: _388  and  _390
REMARK  159  A    between atoms: _390  and  _391
REMARK  160  A    between atoms: _390  and  _393
REMARK  161  A    between atoms: _393  and  _394
REMARK  162  A    between atoms: _394  and  _395
REMARK  163  A    between atoms: _400  and  _402
REMARK  164  A    between atoms: _402  and  _403
REMARK  165  A    between atoms: _402  and  _405
REMARK  166  A    between atoms: _405  and  _406
REMARK  167  A    between atoms: _411  and  _413
REMARK  168  A    between atoms: _413  and  _414
REMARK  169  A    between atoms: _413  and  _416
REMARK  170  A    between atoms: _419  and  _421
REMARK  171  A    between atoms: _421  and  _422
REMARK  172  A    between atoms: _421  and  _424
REMARK  173  A    between atoms: _424  and  _425
REMARK  174  A    between atoms: _428  and  _430
REMARK  175  A    between atoms: _430  and  _431
REMARK  176  A    between atoms: _430  and  _433
REMARK  177  A    between atoms: _433  and  _434
REMARK  178  A    between atoms: _437  and  _439
REMARK  179  A    between atoms: _439  and  _440
REMARK  180  A    between atoms: _439  and  _442
REMARK  181  A    between atoms: _442  and  _443
REMARK  182  A    between atoms: _448  and  _450
REMARK  183  A    between atoms: _450  and  _451
REMARK  184  A    between atoms: _450  and  _453
REMARK  185  A    between atoms: _453  and  _454
REMARK  186  A    between atoms: _454  and  _455
REMARK  187  A    between atoms: _455  and  _456
REMARK  188  A    between atoms: _456  and  _457
REMARK  189  A    between atoms: _461  and  _463
REMARK  190  A    between atoms: _463  and  _464
REMARK  191  A    between atoms: _463  and  _466
REMARK  192  A    between atoms: _466  and  _467
REMARK  193  A    between atoms: _470  and  _472
REMARK  194  A    between atoms: _472  and  _473
REMARK  195  A    between atoms: _472  and  _475
REMARK  196  A    between atoms: _475  and  _476
REMARK  197  A    between atoms: _479  and  _481
REMARK  198  A    between atoms: _481  and  _482
REMARK  199  A    between atoms: _481  and  _484
REMARK  200  A    between atoms: _484  and  _485
REMARK  201  A    between atoms: _488  and  _490
REMARK  202  A    between atoms: _490  and  _491
REMARK  203  A    between atoms: _490  and  _493
REMARK  204  A    between atoms: _493  and  _494
REMARK  205  A    between atoms: _497  and  _499
REMARK  206  A    between atoms: _499  and  _500
REMARK  207  A    between atoms: _502  and  _504
REMARK  208  A    between atoms: _504  and  _505
REMARK  209  A    between atoms: _504  and  _507
REMARK  210  A    between atoms: _507  and  _508
REMARK  211  A    between atoms: _513  and  _515
REMARK  212  A    between atoms: _515  and  _516
REMARK  213  A    between atoms: _515  and  _518
REMARK  214  A    between atoms: _518  and  _519
REMARK  215  A    between atoms: _519  and  _520
REMARK  216  A    between atoms: _523  and  _525
REMARK  217  A    between atoms: _525  and  _526
REMARK  218  A    between atoms: _525  and  _528
REMARK  219  A    between atoms: _528  and  _529
REMARK  220  A    between atoms: _534  and  _536
REMARK  221  A    between atoms: _536  and  _537
REMARK  222  A    between atoms: _536  and  _539
REMARK  223  A    between atoms: _539  and  _540
REMARK  224  A    between atoms: _540  and  _541
REMARK  225  A    between atoms: _543  and  _545
REMARK  226  A    between atoms: _545  and  _546
REMARK  227  A    between atoms: _545  and  _548
REMARK  228  A    between atoms: _548  and  _549
REMARK  229  A    between atoms: _549  and  _550
REMARK  230  A    between atoms: _550  and  _551
REMARK  231  A    between atoms: _560  and  _562
REMARK  232  A    between atoms: _562  and  _563
REMARK  233  A    between atoms: _562  and  _565
REMARK  234  A    between atoms: _565  and  _566
REMARK  235  A    between atoms: _569  and  _571
REMARK  236  A    between atoms: _571  and  _572
REMARK  237  A    between atoms: _575  and  _577
REMARK  238  A    between atoms: _577  and  _578
REMARK  239  A    between atoms: _577  and  _580
REMARK  240  A    between atoms: _580  and  _581
REMARK  241  A    between atoms: _587  and  _589
REMARK  242  A    between atoms: _589  and  _590
REMARK  243  A    between atoms: _589  and  _592
REMARK  244  A    between atoms: _592  and  _593
REMARK  245  A    between atoms: _593  and  _594
REMARK  246  A    between atoms: _597  and  _599
REMARK  247  A    between atoms: _599  and  _600
REMARK  248  A    between atoms: _599  and  _602
REMARK  249  A    between atoms: _602  and  _603
REMARK  250  A    between atoms: _605  and  _607
REMARK  251  A    between atoms: _607  and  _608
REMARK  252  A    between atoms: _607  and  _610
REMARK  253  A    between atoms: _610  and  _611
REMARK  254  A    between atoms: _621  and  _623
REMARK  255  A    between atoms: _623  and  _624
REMARK  256  A    between atoms: _623  and  _626
REMARK  257  A    between atoms: _626  and  _627
REMARK  258  A    between atoms: _629  and  _631
REMARK  259  A    between atoms: _631  and  _632
REMARK  260  A    between atoms: _631  and  _634
REMARK  261  A    between atoms: _637  and  _639
REMARK  262  A    between atoms: _639  and  _640
REMARK  263  A    between atoms: _639  and  _642
REMARK  264  A    between atoms: _642  and  _643
REMARK  265  A    between atoms: _646  and  _648
REMARK  266  A    between atoms: _648  and  _649
REMARK  267  A    between atoms: _648  and  _651
REMARK  268  A    between atoms: _651  and  _652
REMARK                            x       y       z     vdW  Elec       q    Type
REMARK                         _______ _______ _______ _____ _____    ______ ____
ROOT
ATOM      1  CA  ILE A   1       2.163   5.830  10.521  0.00  0.00    +0.133 C 
ENDROOT
BRANCH   1   2
ATOM      2  N   ILE A   1       1.023   6.626  10.006  0.00  0.00    -0.239 NA
ATOM      3  H   ILE A   1       0.648   6.420   9.058  0.00  0.00    +0.142 HD
ENDBRANCH   1   2
BRANCH   1   4
ATOM      4  C   ILE A   1       3.364   6.739  10.835  0.00  0.00    +0.224 C 
ATOM      5  O   ILE A   1       3.924   6.705  11.929  0.00  0.00    -0.287 OA
ENDBRANCH   1   4
BRANCH   1   6
ATOM      6  CB  ILE A   1       2.592   4.778   9.499  0.00  0.00    +0.023 C 
ATOM      7  CG2 ILE A   1       3.970   4.186   9.849  0.00  0.00    +0.002 C 
BRANCH   6   8
ATOM      8  CG1 ILE A   1       1.522   3.701   9.362  0.00  0.00    +0.002 C 
ATOM      9  CD1 ILE A   1       1.738   2.801   8.121  0.00  0.00    +0.000 C 
ENDBRANCH   6   8
ENDBRANCH   1   6
TORSDOF 4
REMARK  Name = ../refined-set-2016/3f8c/3f8c_pocket.pdb
REMARK  268 active torsions:
REMARK  status: ('A' for Active; 'I' for Inactive)
REMARK    1  A    between atoms: _1  and  _5
REMARK    2  A    between atoms: _5  and  _6
REMARK    3  A    between atoms: _5  and  _8
REMARK    4  A    between atoms: _8  and  _9
REMARK    5  A    between atoms: _9  and  _10
REMARK    6  A    between atoms: _14  and  _15
REMARK    7  A    between atoms: _20  and  _22
REMARK    8  A    between atoms: _22  and  _23
REMARK    9  A    between atoms: _22  and  _25
REMARK   10  A    between atoms: _25  and  _26
REMARK   11  A    between atoms: _26  and  _27
REMARK   12  A    between atoms: _29  and  _31
REMARK   13  A    between atoms: _31  and  _32
REMARK   14  A    between atoms: _31  and  _34
REMARK   15  A    between atoms: _34  and  _35
REMARK   16  A    between atoms: _35  and  _36
REMARK   17  A    between atoms: _36  and  _37
REMARK   18  A    between atoms: _46  and  _48
REMARK   19  A    between atoms: _48  and  _49
REMARK   20  A    between atoms: _52  and  _54
REMARK   21  A    between atoms: _54  and  _55
REMARK   22  A    between atoms: _54  and  _57
REMARK   23  A    between atoms: _57  and  _58
REMARK   24  A    between atoms: _58  and  _59
REMARK   25  A    between atoms: _64  and  _66
REMARK   26  A    between atoms: _66  and  _67
REMARK   27  A    between atoms: _66  and  _69
REMARK   28  A    between atoms: _69  and  _70
REMARK   29  A    between atoms: _73  and  _75
REMARK   30  A    between atoms: _75  and  _76
REMARK   31  A    between atoms: _75  and  _78
REMARK   32  A    between atoms: _78  and  _79
REMARK   33  A    between atoms: _84  and  _86
REMARK   34  A    between atoms: _86  and  _87
REMARK   35  A    between atoms: _86  and  _89
REMARK   36  A    between atoms: _92  and  _94
REMARK   37  A    between atoms: _94  and  _95
REMARK   38  A    between atoms: _94  and  _97
REMARK   39  A    between atoms: _97  and  _98
REMARK   40  A    between atoms: _101  and  _103
REMARK   41  A    between atoms: _103  and  _104
REMARK   42  A    between atoms: _103  and  _106
REMARK   43  A    between atoms: _106  and  _107
REMARK   44  A    between atoms: _110  and  _112
REMARK   45  A    between atoms: _112  and  _113
REMARK   46  A    between atoms: _112  and  _115
REMARK   47  A    between atoms: _115  and  _116
REMARK   48  A    between atoms: _121  and  _123
REMARK   49  A    between atoms: _123  and  _124
REMARK   50  A    between atoms: _123  and  _126
REMARK   51  A    between atoms: _126  and  _127
REMARK   52  A    between atoms: _127  and  _128
REMARK   53  A    between atoms: _128  and  _129
REMARK   54  A    between atoms: _129  and  _130
REMARK   55  A    between atoms: _134  and  _136
REMARK   56  A    between atoms: _136  and  _137
REMARK   57  A    between atoms: _136  and  _139
REMARK   58  A    between atoms: _139  and  _140
REMARK   59  A    between atoms: _140  and  _141
REMARK   60  A    between atoms: _141  and  _142
REMARK   61  A    between atoms: _151  and  _153
REMARK   62  A    between atoms: _153  and  _154
REMARK   63  A    between atoms: _153  and  _156
REMARK   64  A    between atoms: _156  and  _157
REMARK   65  A    between atoms: _160  and  _162
REMARK   66  A    between atoms: _162  and  _163
REMARK   67  A    between atoms: _162  and  _165
REMARK   68  A    between atoms: _165  and  _166
REMARK   69  A    between atoms: _169  and  _171
REMARK   70  A    between atoms: _171  and  _172
REMARK   71  A    between atoms: _171  and  _174
REMARK   72  A    between atoms: _174  and  _175
REMARK   73  A    between atoms: _178  and  _180
REMARK   74  A    between atoms: _180  and  _181
REMARK   75  A    between atoms: _180  and  _183
REMARK   76  A    between atoms: _183  and  _184
REMARK   77  A    between atoms: _187  and  _189
REMARK   78  A    between atoms: _189  and  _190
REMARK   79  A    between atoms: _189  and  _192
REMARK   80  A    between atoms: _192  and  _193
REMARK   81  A    between atoms: _196  and  _198
REMARK   82  A    between atoms: _198  and  _199
REMARK   83  A    between atoms: _201  and  _203
REMARK   84  A    between atoms: _203  and  _204
REMARK   85  A    between atoms: _203  and  _206
REMARK   86  A    between atoms: _206  and  _207
REMARK   87  A    between atoms: _212  and  _214
REMARK   88  A    between atoms: _214  and  _215
REMARK   89  A    between atoms: _214  and  _217
REMARK   90  A    between atoms: _217  and  _218
REMARK   91  A    between atoms: _218  and  _219
REMARK   92  A    between atoms: _222  and  _224
REMARK   93  A    between atoms: _224  and  _225
REMARK   94  A    between atoms: _224  and  _227
REMARK   95  A    between atoms: _227  and  _228
REMARK   96  A    between atoms: _233  and  _235
REMARK   97  A    between atoms: _235  and  _236
REMARK   98  A    between atoms: _235  and  _238
REMARK   99  A    between atoms: _238  and  _239
REMARK  100  A    between atoms: _239  and  _240
REMARK  101  A    between atoms: _242  and  _244
REMARK  102  A    between atoms: _244  and  _245
REMARK  103  A    between atoms: _244  and  _247
REMARK  104  A    between atoms: _247  and  _248
REMARK  105  A    between atoms: _248  and  _249
REMARK  106  A    between atoms: _249  and  _250
REMARK  107  A    between atoms: _259  and  _261
REMARK  108  A    between atoms: _261  and  _262
REMARK  109  A    between atoms: _261  and  _264
REMARK  110  A    between atoms: _264  and  _265
REMARK  111  A    between atoms: _268  and  _270
REMARK  112  A    between atoms: _270  and  _271
REMARK  113  A    between atoms: _274  and  _276
REMARK  114  A    between atoms: _276  and  _277
REMARK  115  A    between atoms: _276  and  _279
REMARK  116  A    between atoms: _279  and  _280
REMARK  117  A    between atoms: _286  and  _288
REMARK  118  A    between atoms: _288  and  _289
REMARK  119  A    between atoms: _288  and  _291
REMARK  120  A    between atoms: _291  and  _292
REMARK  121  A    between atoms: _292  and  _293
REMARK  122  A    between atoms: _296  and  _298
REMARK  123  A    between atoms: _298  and  _299
REMARK  124  A    between atoms: _298  and  _301
REMARK  125  A    between atoms: _301  and  _302
REMARK  126  A    between atoms: _304  and  _306
REMARK  127  A    between atoms: _306  and  _307
REMARK  128  A    between atoms: _306  and  _309
REMARK  129  A    between atoms: _309  and  _310
REMARK  130  A    between atoms: _320  and  _322
REMARK  131  A    between atoms: _322  and  _323
REMARK  132  A    between atoms: _322  and  _325
REMARK  133  A    between atoms: _325  and  _326
REMARK  134  A    between atoms: _328  and  _330
REMARK  135  A    between atoms: _330  and  _331
REMARK  136  A    between atoms: _330  and  _333
REMARK  137  A    between atoms: _336  and  _338
REMARK  138  A    between atoms: _338  and  _339
REMARK  139  A    between atoms: _338  and  _341
REMARK  140  A    between atoms: _341  and  _342
REMARK  141  A    between atoms: _345  and  _347
REMARK  142  A    between atoms: _347  and  _348
REMARK  143  A    between atoms: _347  and  _350
REMARK  144  A    between atoms: _350  and  _351
REMARK  145  A    between atoms: _354  and  _358
REMARK  146  A    between atoms: _358  and  _359
REMARK  147  A    between atoms: _358  and  _361
REMARK  148  A    between atoms: _361  and  _362
REMARK  149  A    between atoms: _362  and  _363
REMARK  150  A    between atoms: _367  and  _368
REMARK  151  A    between atoms: _373  and  _375
REMARK  152  A    between atoms: _375  and  _376
REMARK  153  A    between atoms: _375  and  _378
REMARK  154  A    between atoms: _378  and  _379
REMARK  155  A    between atoms: _379  and  _380
REMARK  156  A    between atoms: _382  and  _384
REMARK  157  A    between atoms: _384  and  _385
REMARK  158  A    between atoms: _388  and  _390
REMARK  159  A    between atoms: _390  and  _391
REMARK  160  A    between atoms: _390  and  _393
REMARK  161  A    between atoms: _393  and  _394
REMARK  162  A    between atoms: _394  and  _395
REMARK  163  A    between atoms: _400  and  _402
REMARK  164  A    between atoms: _402  and  _403
REMARK  165  A    between atoms: _402  and  _405
REMARK  166  A    between atoms: _405  and  _406
REMARK  167  A    between atoms: _411  and  _413
REMARK  168  A    between atoms: _413  and  _414
REMARK  169  A    between atoms: _413  and  _416
REMARK  170  A    between atoms: _419  and  _421
REMARK  171  A    between atoms: _421  and  _422
REMARK  172  A    between atoms: _421  and  _424
REMARK  173  A    between atoms: _424  and  _425
REMARK  174  A    between atoms: _428  and  _430
REMARK  175  A    between atoms: _430  and  _431
REMARK  176  A    between atoms: _430  and  _433
REMARK  177  A    between atoms: _433  and  _434
REMARK  178  A    between atoms: _437  and  _439
REMARK  179  A    between atoms: _439  and  _440
REMARK  180  A    between atoms: _439  and  _442
REMARK  181  A    between atoms: _442  and  _443
REMARK  182  A    between atoms: _448  and  _450
REMARK  183  A    between atoms: _450  and  _451
REMARK  184  A    between atoms: _450  and  _453
REMARK  185  A    between atoms: _453  and  _454
REMARK  186  A    between atoms: _454  and  _455
REMARK  187  A    between atoms: _455  and  _456
REMARK  188  A    between atoms: _456  and  _457
REMARK  189  A    between atoms: _461  and  _463
REMARK  190  A    between atoms: _463  and  _464
REMARK  191  A    between atoms: _463  and  _466
REMARK  192  A    between atoms: _466  and  _467
REMARK  193  A    between atoms: _470  and  _472
REMARK  194  A    between atoms: _472  and  _473
REMARK  195  A    between atoms: _472  and  _475
REMARK  196  A    between atoms: _475  and  _476
REMARK  197  A    between atoms: _479  and  _481
REMARK  198  A    between atoms: _481  and  _482
REMARK  199  A    between atoms: _481  and  _484
REMARK  200  A    between atoms: _484  and  _485
REMARK  201  A    between atoms: _488  and  _490
REMARK  202  A    between atoms: _490  and  _491
REMARK  203  A    between atoms: _490  and  _493
REMARK  204  A    between atoms: _493  and  _494
REMARK  205  A    between atoms: _497  and  _499
REMARK  206  A    between atoms: _499  and  _500
REMARK  207  A    between atoms: _502  and  _504
REMARK  208  A    between atoms: _504  and  _505
REMARK  209  A    between atoms: _504  and  _507
REMARK  210  A    between atoms: _507  and  _508
REMARK  211  A    between atoms: _513  and  _515
REMARK  212  A    between atoms: _515  and  _516
REMARK  213  A    between atoms: _515  and  _518
REMARK  214  A    between atoms: _518  and  _519
REMARK  215  A    between atoms: _519  and  _520
REMARK  216  A    between atoms: _523  and  _525
REMARK  217  A    between atoms: _525  and  _526
REMARK  218  A    between atoms: _525  and  _528
REMARK  219  A    between atoms: _528  and  _529
REMARK  220  A    between atoms: _534  and  _536
REMARK  221  A    between atoms: _536  and  _537
REMARK  222  A    between atoms: _536  and  _539
REMARK  223  A    between atoms: _539  and  _540
REMARK  224  A    between atoms: _540  and  _541
REMARK  225  A    between atoms: _543  and  _545
REMARK  226  A    between atoms: _545  and  _546
REMARK  227  A    between atoms: _545  and  _548
REMARK  228  A    between atoms: _548  and  _549
REMARK  229  A    between atoms: _549  and  _550
REMARK  230  A    between atoms: _550  and  _551
REMARK  231  A    between atoms: _560  and  _562
REMARK  232  A    between atoms: _562  and  _563
REMARK  233  A    between atoms: _562  and  _565
REMARK  234  A    between atoms: _565  and  _566
REMARK  235  A    between atoms: _569  and  _571
REMARK  236  A    between atoms: _571  and  _572
REMARK  237  A    between atoms: _575  and  _577
REMARK  238  A    between atoms: _577  and  _578
REMARK  239  A    between atoms: _577  and  _580
REMARK  240  A    between atoms: _580  and  _581
REMARK  241  A    between atoms: _587  and  _589
REMARK  242  A    between atoms: _589  and  _590
REMARK  243  A    between atoms: _589  and  _592
REMARK  244  A    between atoms: _592  and  _593
REMARK  245  A    between atoms: _593  and  _594
REMARK  246  A    between atoms: _597  and  _599
REMARK  247  A    between atoms: _599  and  _600
REMARK  248  A    between atoms: _599  and  _602
REMARK  249  A    between atoms: _602  and  _603
REMARK  250  A    between atoms: _605  and  _607
REMARK  251  A    between atoms: _607  and  _608
REMARK  252  A    between atoms: _607  and  _610
REMARK  253  A    between atoms: _610  and  _611
REMARK  254  A    between atoms: _621  and  _623
REMARK  255  A    between atoms: _623  and  _624
REMARK  256  A    between atoms: _623  and  _626
REMARK  257  A    between atoms: _626  and  _627
REMARK  258  A    between atoms: _629  and  _631
REMARK  259  A    between atoms: _631  and  _632
REMARK  260  A    between atoms: _631  and  _634
REMARK  261  A    between atoms: _637  and  _639
REMARK  262  A    between atoms: _639  and  _640
REMARK  263  A    between atoms: _639  and  _642
REMARK  264  A    between atoms: _642  and  _643
REMARK  265  A    between atoms: _646  and  _648
REMARK  266  A    between atoms: _648  and  _649
REMARK  267  A    between atoms: _648  and  _651
REMARK  268  A    between atoms: _651  and  _652
REMARK                            x       y       z     vdW  Elec       q    Type
REMARK                         _______ _______ _______ _____ _____    ______ ____
ROOT
ATOM      1  CA  GLU A   1     -15.526   4.284  -3.915  0.00  0.00    +0.001 C 
ENDROOT
BRANCH   1   2
ATOM      2  N   GLU A   1     -15.494   5.644  -3.306  0.00  0.00    +0.387 N 
ATOM      3  H1  GLU A   1     -15.473   5.558  -2.270  0.00  0.00    -0.089 HD
ATOM      4  H2  GLU A   1     -16.343   6.172  -3.594  0.00  0.00    -0.089 HD
ATOM      5  H3  GLU A   1     -14.644   6.148  -3.631  0.00  0.00    -0.089 HD
ENDBRANCH   1   2
BRANCH   1   6
ATOM      6  C   GLU A   1     -14.295   3.464  -3.521  0.00  0.00    +0.185 C 
ATOM      7  O   GLU A   1     -13.769   2.697  -4.332  0.00  0.00    -0.291 OA
ENDBRANCH   1   6
BRANCH   1   8
ATOM      8  CB  GLU A   1     -15.617   4.383  -5.436  0.00  0.00    -0.002 C 
BRANCH   8   9
ATOM      9  CG  GLU A   1     -16.568   5.439  -5.933  0.00  0.00    +0.112 C 
BRANCH   9  10
ATOM     10  CD  GLU A   1     -16.299   5.818  -7.372  0.00  0.00    +0.365 C 
ATOM     11  OE2 GLU A   1     -15.111   5.972  -7.725  0.00  0.00    -0.246 OA
ATOM     12  OE1 GLU A   1     -17.273   5.965  -8.154  0.00  0.00    -0.246 OA
ENDBRANCH   9  10
ENDBRANCH   8   9
ENDBRANCH   1   8
TORSDOF 5
REMARK  Name = ../refined-set-2016/3f8c/3f8c_pocket.pdb
REMARK  268 active torsions:
REMARK  status: ('A' for Active; 'I' for Inactive)
REMARK    1  A    between atoms: _1  and  _5
REMARK    2  A    between atoms: _5  and  _6
REMARK    3  A    between atoms: _5  and  _8
REMARK    4  A    between atoms: _8  and  _9
REMARK    5  A    between atoms: _9  and  _10
REMARK    6  A    between atoms: _14  and  _15
REMARK    7  A    between atoms: _20  and  _22
REMARK    8  A    between atoms: _22  and  _23
REMARK    9  A    between atoms: _22  and  _25
REMARK   10  A    between atoms: _25  and  _26
REMARK   11  A    between atoms: _26  and  _27
REMARK   12  A    between atoms: _29  and  _31
REMARK   13  A    between atoms: _31  and  _32
REMARK   14  A    between atoms: _31  and  _34
REMARK   15  A    between atoms: _34  and  _35
REMARK   16  A    between atoms: _35  and  _36
REMARK   17  A    between atoms: _36  and  _37
REMARK   18  A    between atoms: _46  and  _48
REMARK   19  A    between atoms: _48  and  _49
REMARK   20  A    between atoms: _52  and  _54
REMARK   21  A    between atoms: _54  and  _55
REMARK   22  A    between atoms: _54  and  _57
REMARK   23  A    between atoms: _57  and  _58
REMARK   24  A    between atoms: _58  and  _59
REMARK   25  A    between atoms: _64  and  _66
REMARK   26  A    between atoms: _66  and  _67
REMARK   27  A    between atoms: _66  and  _69
REMARK   28  A    between atoms: _69  and  _70
REMARK   29  A    between atoms: _73  and  _75
REMARK   30  A    between atoms: _75  and  _76
REMARK   31  A    between atoms: _75  and  _78
REMARK   32  A    between atoms: _78  and  _79
REMARK   33  A    between atoms: _84  and  _86
REMARK   34  A    between atoms: _86  and  _87
REMARK   35  A    between atoms: _86  and  _89
REMARK   36  A    between atoms: _92  and  _94
REMARK   37  A    between atoms: _94  and  _95
REMARK   38  A    between atoms: _94  and  _97
REMARK   39  A    between atoms: _97  and  _98
REMARK   40  A    between atoms: _101  and  _103
REMARK   41  A    between atoms: _103  and  _104
REMARK   42  A    between atoms: _103  and  _106
REMARK   43  A    between atoms: _106  and  _107
REMARK   44  A    between atoms: _110  and  _112
REMARK   45  A    between atoms: _112  and  _113
REMARK   46  A    between atoms: _112  and  _115
REMARK   47  A    between atoms: _115  and  _116
REMARK   48  A    between atoms: _121  and  _123
REMARK   49  A    between atoms: _123  and  _124
REMARK   50  A    between atoms: _123  and  _126
REMARK   51  A    between atoms: _126  and  _127
REMARK   52  A    between atoms: _127  and  _128
REMARK   53  A    between atoms: _128  and  _129
REMARK   54  A    between atoms: _129  and  _130
REMARK   55  A    between atoms: _134  and  _136
REMARK   56  A    between atoms: _136  and  _137
REMARK   57  A    between atoms: _136  and  _139
REMARK   58  A    between atoms: _139  and  _140
REMARK   59  A    between atoms: _140  and  _141
REMARK   60  A    between atoms: _141  and  _142
REMARK   61  A    between atoms: _151  and  _153
REMARK   62  A    between atoms: _153  and  _154
REMARK   63  A    between atoms: _153  and  _156
REMARK   64  A    between atoms: _156  and  _157
REMARK   65  A    between atoms: _160  and  _162
REMARK   66  A    between atoms: _162  and  _163
REMARK   67  A    between atoms: _162  and  _165
REMARK   68  A    between atoms: _165  and  _166
REMARK   69  A    between atoms: _169  and  _171
REMARK   70  A    between atoms: _171  and  _172
REMARK   71  A    between atoms: _171  and  _174
REMARK   72  A    between atoms: _174  and  _175
REMARK   73  A    between atoms: _178  and  _180
REMARK   74  A    between atoms: _180  and  _181
REMARK   75  A    between atoms: _180  and  _183
REMARK   76  A    between atoms: _183  and  _184
REMARK   77  A    between atoms: _187  and  _189
REMARK   78  A    between atoms: _189  and  _190
REMARK   79  A    between atoms: _189  and  _192
REMARK   80  A    between atoms: _192  and  _193
REMARK   81  A    between atoms: _196  and  _198
REMARK   82  A    between atoms: _198  and  _199
REMARK   83  A    between atoms: _201  and  _203
REMARK   84  A    between atoms: _203  and  _204
REMARK   85  A    between atoms: _203  and  _206
REMARK   86  A    between atoms: _206  and  _207
REMARK   87  A    between atoms: _212  and  _214
REMARK   88  A    between atoms: _214  and  _215
REMARK   89  A    between atoms: _214  and  _217
REMARK   90  A    between atoms: _217  and  _218
REMARK   91  A    between atoms: _218  and  _219
REMARK   92  A    between atoms: _222  and  _224
REMARK   93  A    between atoms: _224  and  _225
REMARK   94  A    between atoms: _224  and  _227
REMARK   95  A    between atoms: _227  and  _228
REMARK   96  A    between atoms: _233  and  _235
REMARK   97  A    between atoms: _235  and  _236
REMARK   98  A    between atoms: _235  and  _238
REMARK   99  A    between atoms: _238  and  _239
REMARK  100  A    between atoms: _239  and  _240
REMARK  101  A    between atoms: _242  and  _244
REMARK  102  A    between atoms: _244  and  _245
REMARK  103  A    between atoms: _244  and  _247
REMARK  104  A    between atoms: _247  and  _248
REMARK  105  A    between atoms: _248  and  _249
REMARK  106  A    between atoms: _249  and  _250
REMARK  107  A    between atoms: _259  and  _261
REMARK  108  A    between atoms: _261  and  _262
REMARK  109  A    between atoms: _261  and  _264
REMARK  110  A    between atoms: _264  and  _265
REMARK  111  A    between atoms: _268  and  _270
REMARK  112  A    between atoms: _270  and  _271
REMARK  113  A    between atoms: _274  and  _276
REMARK  114  A    between atoms: _276  and  _277
REMARK  115  A    between atoms: _276  and  _279
REMARK  116  A    between atoms: _279  and  _280
REMARK  117  A    between atoms: _286  and  _288
REMARK  118  A    between atoms: _288  and  _289
REMARK  119  A    between atoms: _288  and  _291
REMARK  120  A    between atoms: _291  and  _292
REMARK  121  A    between atoms: _292  and  _293
REMARK  122  A    between atoms: _296  and  _298
REMARK  123  A    between atoms: _298  and  _299
REMARK  124  A    between atoms: _298  and  _301
REMARK  125  A    between atoms: _301  and  _302
REMARK  126  A    between atoms: _304  and  _306
REMARK  127  A    between atoms: _306  and  _307
REMARK  128  A    between atoms: _306  and  _309
REMARK  129  A    between atoms: _309  and  _310
REMARK  130  A    between atoms: _320  and  _322
REMARK  131  A    between atoms: _322  and  _323
REMARK  132  A    between atoms: _322  and  _325
REMARK  133  A    between atoms: _325  and  _326
REMARK  134  A    between atoms: _328  and  _330
REMARK  135  A    between atoms: _330  and  _331
REMARK  136  A    between atoms: _330  and  _333
REMARK  137  A    between atoms: _336  and  _338
REMARK  138  A    between atoms: _338  and  _339
REMARK  139  A    between atoms: _338  and  _341
REMARK  140  A    between atoms: _341  and  _342
REMARK  141  A    between atoms: _345  and  _347
REMARK  142  A    between atoms: _347  and  _348
REMARK  143  A    between atoms: _347  and  _350
REMARK  144  A    between atoms: _350  and  _351
REMARK  145  A    between atoms: _354  and  _358
REMARK  146  A    between atoms: _358  and  _359
REMARK  147  A    between atoms: _358  and  _361
REMARK  148  A    between atoms: _361  and  _362
REMARK  149  A    between atoms: _362  and  _363
REMARK  150  A    between atoms: _367  and  _368
REMARK  151  A    between atoms: _373  and  _375
REMARK  152  A    between atoms: _375  and  _376
REMARK  153  A    between atoms: _375  and  _378
REMARK  154  A    between atoms: _378  and  _379
REMARK  155  A    between atoms: _379  and  _380
REMARK  156  A    between atoms: _382  and  _384
REMARK  157  A    between atoms: _384  and  _385
REMARK  158  A    between atoms: _388  and  _390
REMARK  159  A    between atoms: _390  and  _391
REMARK  160  A    between atoms: _390  and  _393
REMARK  161  A    between atoms: _393  and  _394
REMARK  162  A    between atoms: _394  and  _395
REMARK  163  A    between atoms: _400  and  _402
REMARK  164  A    between atoms: _402  and  _403
REMARK  165  A    between atoms: _402  and  _405
REMARK  166  A    between atoms: _405  and  _406
REMARK  167  A    between atoms: _411  and  _413
REMARK  168  A    between atoms: _413  and  _414
REMARK  169  A    between atoms: _413  and  _416
REMARK  170  A    between atoms: _419  and  _421
REMARK  171  A    between atoms: _421  and  _422
REMARK  172  A    between atoms: _421  and  _424
REMARK  173  A    between atoms: _424  and  _425
REMARK  174  A    between atoms: _428  and  _430
REMARK  175  A    between atoms: _430  and  _431
REMARK  176  A    between atoms: _430  and  _433
REMARK  177  A    between atoms: _433  and  _434
REMARK  178  A    between atoms: _437  and  _439
REMARK  179  A    between atoms: _439  and  _440
REMARK  180  A    between atoms: _439  and  _442
REMARK  181  A    between atoms: _442  and  _443
REMARK  182  A    between atoms: _448  and  _450
REMARK  183  A    between atoms: _450  and  _451
REMARK  184  A    between atoms: _450  and  _453
REMARK  185  A    between atoms: _453  and  _454
REMARK  186  A    between atoms: _454  and  _455
REMARK  187  A    between atoms: _455  and  _456
REMARK  188  A    between atoms: _456  and  _457
REMARK  189  A    between atoms: _461  and  _463
REMARK  190  A    between atoms: _463  and  _464
REMARK  191  A    between atoms: _463  and  _466
REMARK  192  A    between atoms: _466  and  _467
REMARK  193  A    between atoms: _470  and  _472
REMARK  194  A    between atoms: _472  and  _473
REMARK  195  A    between atoms: _472  and  _475
REMARK  196  A    between atoms: _475  and  _476
REMARK  197  A    between atoms: _479  and  _481
REMARK  198  A    between atoms: _481  and  _482
REMARK  199  A    between atoms: _481  and  _484
REMARK  200  A    between atoms: _484  and  _485
REMARK  201  A    between atoms: _488  and  _490
REMARK  202  A    between atoms: _490  and  _491
REMARK  203  A    between atoms: _490  and  _493
REMARK  204  A    between atoms: _493  and  _494
REMARK  205  A    between atoms: _497  and  _499
REMARK  206  A    between atoms: _499  and  _500
REMARK  207  A    between atoms: _502  and  _504
REMARK  208  A    between atoms: _504  and  _505
REMARK  209  A    between atoms: _504  and  _507
REMARK  210  A    between atoms: _507  and  _508
REMARK  211  A    between atoms: _513  and  _515
REMARK  212  A    between atoms: _515  and  _516
REMARK  213  A    between atoms: _515  and  _518
REMARK  214  A    between atoms: _518  and  _519
REMARK  215  A    between atoms: _519  and  _520
REMARK  216  A    between atoms: _523  and  _525
REMARK  217  A    between atoms: _525  and  _526
REMARK  218  A    between atoms: _525  and  _528
REMARK  219  A    between atoms: _528  and  _529
REMARK  220  A    between atoms: _534  and  _536
REMARK  221  A    between atoms: _536  and  _537
REMARK  222  A    between atoms: _536  and  _539
REMARK  223  A    between atoms: _539  and  _540
REMARK  224  A    between atoms: _540  and  _541
REMARK  225  A    between atoms: _543  and  _545
REMARK  226  A    between atoms: _545  and  _546
REMARK  227  A    between atoms: _545  and  _548
REMARK  228  A    between atoms: _548  and  _549
REMARK  229  A    between atoms: _549  and  _550
REMARK  230  A    between atoms: _550  and  _551
REMARK  231  A    between atoms: _560  and  _562
REMARK  232  A    between atoms: _562  and  _563
REMARK  233  A    between atoms: _562  and  _565
REMARK  234  A    between atoms: _565  and  _566
REMARK  235  A    between atoms: _569  and  _571
REMARK  236  A    between atoms: _571  and  _572
REMARK  237  A    between atoms: _575  and  _577
REMARK  238  A    between atoms: _577  and  _578
REMARK  239  A    between atoms: _577  and  _580
REMARK  240  A    between atoms: _580  and  _581
REMARK  241  A    between atoms: _587  and  _589
REMARK  242  A    between atoms: _589  and  _590
REMARK  243  A    between atoms: _589  and  _592
REMARK  244  A    between atoms: _592  and  _593
REMARK  245  A    between atoms: _593  and  _594
REMARK  246  A    between atoms: _597  and  _599
REMARK  247  A    between atoms: _599  and  _600
REMARK  248  A    between atoms: _599  and  _602
REMARK  249  A    between atoms: _602  and  _603
REMARK  250  A    between atoms: _605  and  _607
REMARK  251  A    between atoms: _607  and  _608
REMARK  252  A    between atoms: _607  and  _610
REMARK  253  A    between atoms: _610  and  _611
REMARK  254  A    between atoms: _621  and  _623
REMARK  255  A    between atoms: _623  and  _624
REMARK  256  A    between atoms: _623  and  _626
REMARK  257  A    between atoms: _626  and  _627
REMARK  258  A    between atoms: _629  and  _631
REMARK  259  A    between atoms: _631  and  _632
REMARK  260  A    between atoms: _631  and  _634
REMARK  261  A    between atoms: _637  and  _639
REMARK  262  A    between atoms: _639  and  _640
REMARK  263  A    between atoms: _639  and  _642
REMARK  264  A    between atoms: _642  and  _643
REMARK  265  A    between atoms: _646  and  _648
REMARK  266  A    between atoms: _648  and  _649
REMARK  267  A    between atoms: _648  and  _651
REMARK  268  A    between atoms: _651  and  _652
REMARK                            x       y       z     vdW  Elec       q    Type
REMARK                         _______ _______ _______ _____ _____    ______ ____
ROOT
ATOM      1  N   PRO A   1     -13.155   0.325  -1.545  0.00  0.00    -0.212 NA
ATOM      2  CA  PRO A   1     -13.788  -0.905  -1.067  0.00  0.00    +0.137 C 
ATOM      3  CB  PRO A   1     -12.947  -2.005  -1.722  0.00  0.00    +0.027 C 
ATOM      4  CG  PRO A   1     -12.456  -1.375  -2.994  0.00  0.00    +0.021 C 
ATOM      5  CD  PRO A   1     -12.190   0.065  -2.634  0.00  0.00    +0.089 C 
ENDROOT
BRANCH   2   6
ATOM      6  C   PRO A   1     -13.742  -1.026   0.456  0.00  0.00    +0.224 C 
ATOM      7  O   PRO A   1     -12.728  -0.689   1.082  0.00  0.00    -0.287 OA
ENDBRANCH   2   6
TORSDOF 1
REMARK  Name = ../refined-set-2016/3f8c/3f8c_pocket.pdb
REMARK  268 active torsions:
REMARK  status: ('A' for Active; 'I' for Inactive)
REMARK    1  A    between atoms: _1  and  _5
REMARK    2  A    between atoms: _5  and  _6
REMARK    3  A    between atoms: _5  and  _8
REMARK    4  A    between atoms: _8  and  _9
REMARK    5  A    between atoms: _9  and  _10
REMARK    6  A    between atoms: _14  and  _15
REMARK    7  A    between atoms: _20  and  _22
REMARK    8  A    between atoms: _22  and  _23
REMARK    9  A    between atoms: _22  and  _25
REMARK   10  A    between atoms: _25  and  _26
REMARK   11  A    between atoms: _26  and  _27
REMARK   12  A    between atoms: _29  and  _31
REMARK   13  A    between atoms: _31  and  _32
REMARK   14  A    between atoms: _31  and  _34
REMARK   15  A    between atoms: _34  and  _35
REMARK   16  A    between atoms: _35  and  _36
REMARK   17  A    between atoms: _36  and  _37
REMARK   18  A    between atoms: _46  and  _48
REMARK   19  A    between atoms: _48  and  _49
REMARK   20  A    between atoms: _52  and  _54
REMARK   21  A    between atoms: _54  and  _55
REMARK   22  A    between atoms: _54  and  _57
REMARK   23  A    between atoms: _57  and  _58
REMARK   24  A    between atoms: _58  and  _59
REMARK   25  A    between atoms: _64  and  _66
REMARK   26  A    between atoms: _66  and  _67
REMARK   27  A    between atoms: _66  and  _69
REMARK   28  A    between atoms: _69  and  _70
REMARK   29  A    between atoms: _73  and  _75
REMARK   30  A    between atoms: _75  and  _76
REMARK   31  A    between atoms: _75  and  _78
REMARK   32  A    between atoms: _78  and  _79
REMARK   33  A    between atoms: _84  and  _86
REMARK   34  A    between atoms: _86  and  _87
REMARK   35  A    between atoms: _86  and  _89
REMARK   36  A    between atoms: _92  and  _94
REMARK   37  A    between atoms: _94  and  _95
REMARK   38  A    between atoms: _94  and  _97
REMARK   39  A    between atoms: _97  and  _98
REMARK   40  A    between atoms: _101  and  _103
REMARK   41  A    between atoms: _103  and  _104
REMARK   42  A    between atoms: _103  and  _106
REMARK   43  A    between atoms: _106  and  _107
REMARK   44  A    between atoms: _110  and  _112
REMARK   45  A    between atoms: _112  and  _113
REMARK   46  A    between atoms: _112  and  _115
REMARK   47  A    between atoms: _115  and  _116
REMARK   48  A    between atoms: _121  and  _123
REMARK   49  A    between atoms: _123  and  _124
REMARK   50  A    between atoms: _123  and  _126
REMARK   51  A    between atoms: _126  and  _127
REMARK   52  A    between atoms: _127  and  _128
REMARK   53  A    between atoms: _128  and  _129
REMARK   54  A    between atoms: _129  and  _130
REMARK   55  A    between atoms: _134  and  _136
REMARK   56  A    between atoms: _136  and  _137
REMARK   57  A    between atoms: _136  and  _139
REMARK   58  A    between atoms: _139  and  _140
REMARK   59  A    between atoms: _140  and  _141
REMARK   60  A    between atoms: _141  and  _142
REMARK   61  A    between atoms: _151  and  _153
REMARK   62  A    between atoms: _153  and  _154
REMARK   63  A    between atoms: _153  and  _156
REMARK   64  A    between atoms: _156  and  _157
REMARK   65  A    between atoms: _160  and  _162
REMARK   66  A    between atoms: _162  and  _163
REMARK   67  A    between atoms: _162  and  _165
REMARK   68  A    between atoms: _165  and  _166
REMARK   69  A    between atoms: _169  and  _171
REMARK   70  A    between atoms: _171  and  _172
REMARK   71  A    between atoms: _171  and  _174
REMARK   72  A    between atoms: _174  and  _175
REMARK   73  A    between atoms: _178  and  _180
REMARK   74  A    between atoms: _180  and  _181
REMARK   75  A    between atoms: _180  and  _183
REMARK   76  A    between atoms: _183  and  _184
REMARK   77  A    between atoms: _187  and  _189
REMARK   78  A    between atoms: _189  and  _190
REMARK   79  A    between atoms: _189  and  _192
REMARK   80  A    between atoms: _192  and  _193
REMARK   81  A    between atoms: _196  and  _198
REMARK   82  A    between atoms: _198  and  _199
REMARK   83  A    between atoms: _201  and  _203
REMARK   84  A    between atoms: _203  and  _204
REMARK   85  A    between atoms: _203  and  _206
REMARK   86  A    between atoms: _206  and  _207
REMARK   87  A    between atoms: _212  and  _214
REMARK   88  A    between atoms: _214  and  _215
REMARK   89  A    between atoms: _214  and  _217
REMARK   90  A    between atoms: _217  and  _218
REMARK   91  A    between atoms: _218  and  _219
REMARK   92  A    between atoms: _222  and  _224
REMARK   93  A    between atoms: _224  and  _225
REMARK   94  A    between atoms: _224  and  _227
REMARK   95  A    between atoms: _227  and  _228
REMARK   96  A    between atoms: _233  and  _235
REMARK   97  A    between atoms: _235  and  _236
REMARK   98  A    between atoms: _235  and  _238
REMARK   99  A    between atoms: _238  and  _239
REMARK  100  A    between atoms: _239  and  _240
REMARK  101  A    between atoms: _242  and  _244
REMARK  102  A    between atoms: _244  and  _245
REMARK  103  A    between atoms: _244  and  _247
REMARK  104  A    between atoms: _247  and  _248
REMARK  105  A    between atoms: _248  and  _249
REMARK  106  A    between atoms: _249  and  _250
REMARK  107  A    between atoms: _259  and  _261
REMARK  108  A    between atoms: _261  and  _262
REMARK  109  A    between atoms: _261  and  _264
REMARK  110  A    between atoms: _264  and  _265
REMARK  111  A    between atoms: _268  and  _270
REMARK  112  A    between atoms: _270  and  _271
REMARK  113  A    between atoms: _274  and  _276
REMARK  114  A    between atoms: _276  and  _277
REMARK  115  A    between atoms: _276  and  _279
REMARK  116  A    between atoms: _279  and  _280
REMARK  117  A    between atoms: _286  and  _288
REMARK  118  A    between atoms: _288  and  _289
REMARK  119  A    between atoms: _288  and  _291
REMARK  120  A    between atoms: _291  and  _292
REMARK  121  A    between atoms: _292  and  _293
REMARK  122  A    between atoms: _296  and  _298
REMARK  123  A    between atoms: _298  and  _299
REMARK  124  A    between atoms: _298  and  _301
REMARK  125  A    between atoms: _301  and  _302
REMARK  126  A    between atoms: _304  and  _306
REMARK  127  A    between atoms: _306  and  _307
REMARK  128  A    between atoms: _306  and  _309
REMARK  129  A    between atoms: _309  and  _310
REMARK  130  A    between atoms: _320  and  _322
REMARK  131  A    between atoms: _322  and  _323
REMARK  132  A    between atoms: _322  and  _325
REMARK  133  A    between atoms: _325  and  _326
REMARK  134  A    between atoms: _328  and  _330
REMARK  135  A    between atoms: _330  and  _331
REMARK  136  A    between atoms: _330  and  _333
REMARK  137  A    between atoms: _336  and  _338
REMARK  138  A    between atoms: _338  and  _339
REMARK  139  A    between atoms: _338  and  _341
REMARK  140  A    between atoms: _341  and  _342
REMARK  141  A    between atoms: _345  and  _347
REMARK  142  A    between atoms: _347  and  _348
REMARK  143  A    between atoms: _347  and  _350
REMARK  144  A    between atoms: _350  and  _351
REMARK  145  A    between atoms: _354  and  _358
REMARK  146  A    between atoms: _358  and  _359
REMARK  147  A    between atoms: _358  and  _361
REMARK  148  A    between atoms: _361  and  _362
REMARK  149  A    between atoms: _362  and  _363
REMARK  150  A    between atoms: _367  and  _368
REMARK  151  A    between atoms: _373  and  _375
REMARK  152  A    between atoms: _375  and  _376
REMARK  153  A    between atoms: _375  and  _378
REMARK  154  A    between atoms: _378  and  _379
REMARK  155  A    between atoms: _379  and  _380
REMARK  156  A    between atoms: _382  and  _384
REMARK  157  A    between atoms: _384  and  _385
REMARK  158  A    between atoms: _388  and  _390
REMARK  159  A    between atoms: _390  and  _391
REMARK  160  A    between atoms: _390  and  _393
REMARK  161  A    between atoms: _393  and  _394
REMARK  162  A    between atoms: _394  and  _395
REMARK  163  A    between atoms: _400  and  _402
REMARK  164  A    between atoms: _402  and  _403
REMARK  165  A    between atoms: _402  and  _405
REMARK  166  A    between atoms: _405  and  _406
REMARK  167  A    between atoms: _411  and  _413
REMARK  168  A    between atoms: _413  and  _414
REMARK  169  A    between atoms: _413  and  _416
REMARK  170  A    between atoms: _419  and  _421
REMARK  171  A    between atoms: _421  and  _422
REMARK  172  A    between atoms: _421  and  _424
REMARK  173  A    between atoms: _424  and  _425
REMARK  174  A    between atoms: _428  and  _430
REMARK  175  A    between atoms: _430  and  _431
REMARK  176  A    between atoms: _430  and  _433
REMARK  177  A    between atoms: _433  and  _434
REMARK  178  A    between atoms: _437  and  _439
REMARK  179  A    between atoms: _439  and  _440
REMARK  180  A    between atoms: _439  and  _442
REMARK  181  A    between atoms: _442  and  _443
REMARK  182  A    between atoms: _448  and  _450
REMARK  183  A    between atoms: _450  and  _451
REMARK  184  A    between atoms: _450  and  _453
REMARK  185  A    between atoms: _453  and  _454
REMARK  186  A    between atoms: _454  and  _455
REMARK  187  A    between atoms: _455  and  _456
REMARK  188  A    between atoms: _456  and  _457
REMARK  189  A    between atoms: _461  and  _463
REMARK  190  A    between atoms: _463  and  _464
REMARK  191  A    between atoms: _463  and  _466
REMARK  192  A    between atoms: _466  and  _467
REMARK  193  A    between atoms: _470  and  _472
REMARK  194  A    between atoms: _472  and  _473
REMARK  195  A    between atoms: _472  and  _475
REMARK  196  A    between atoms: _475  and  _476
REMARK  197  A    between atoms: _479  and  _481
REMARK  198  A    between atoms: _481  and  _482
REMARK  199  A    between atoms: _481  and  _484
REMARK  200  A    between atoms: _484  and  _485
REMARK  201  A    between atoms: _488  and  _490
REMARK  202  A    between atoms: _490  and  _491
REMARK  203  A    between atoms: _490  and  _493
REMARK  204  A    between atoms: _493  and  _494
REMARK  205  A    between atoms: _497  and  _499
REMARK  206  A    between atoms: _499  and  _500
REMARK  207  A    between atoms: _502  and  _504
REMARK  208  A    between atoms: _504  and  _505
REMARK  209  A    between atoms: _504  and  _507
REMARK  210  A    between atoms: _507  and  _508
REMARK  211  A    between atoms: _513  and  _515
REMARK  212  A    between atoms: _515  and  _516
REMARK  213  A    between atoms: _515  and  _518
REMARK  214  A    between atoms: _518  and  _519
REMARK  215  A    between atoms: _519  and  _520
REMARK  216  A    between atoms: _523  and  _525
REMARK  217  A    between atoms: _525  and  _526
REMARK  218  A    between atoms: _525  and  _528
REMARK  219  A    between atoms: _528  and  _529
REMARK  220  A    between atoms: _534  and  _536
REMARK  221  A    between atoms: _536  and  _537
REMARK  222  A    between atoms: _536  and  _539
REMARK  223  A    between atoms: _539  and  _540
REMARK  224  A    between atoms: _540  and  _541
REMARK  225  A    between atoms: _543  and  _545
REMARK  226  A    between atoms: _545  and  _546
REMARK  227  A    between atoms: _545  and  _548
REMARK  228  A    between atoms: _548  and  _549
REMARK  229  A    between atoms: _549  and  _550
REMARK  230  A    between atoms: _550  and  _551
REMARK  231  A    between atoms: _560  and  _562
REMARK  232  A    between atoms: _562  and  _563
REMARK  233  A    between atoms: _562  and  _565
REMARK  234  A    between atoms: _565  and  _566
REMARK  235  A    between atoms: _569  and  _571
REMARK  236  A    between atoms: _571  and  _572
REMARK  237  A    between atoms: _575  and  _577
REMARK  238  A    between atoms: _577  and  _578
REMARK  239  A    between atoms: _577  and  _580
REMARK  240  A    between atoms: _580  and  _581
REMARK  241  A    between atoms: _587  and  _589
REMARK  242  A    between atoms: _589  and  _590
REMARK  243  A    between atoms: _589  and  _592
REMARK  244  A    between atoms: _592  and  _593
REMARK  245  A    between atoms: _593  and  _594
REMARK  246  A    between atoms: _597  and  _599
REMARK  247  A    between atoms: _599  and  _600
REMARK  248  A    between atoms: _599  and  _602
REMARK  249  A    between atoms: _602  and  _603
REMARK  250  A    between atoms: _605  and  _607
REMARK  251  A    between atoms: _607  and  _608
REMARK  252  A    between atoms: _607  and  _610
REMARK  253  A    between atoms: _610  and  _611
REMARK  254  A    between atoms: _621  and  _623
REMARK  255  A    between atoms: _623  and  _624
REMARK  256  A    between atoms: _623  and  _626
REMARK  257  A    between atoms: _626  and  _627
REMARK  258  A    between atoms: _629  and  _631
REMARK  259  A    between atoms: _631  and  _632
REMARK  260  A    between atoms: _631  and  _634
REMARK  261  A    between atoms: _637  and  _639
REMARK  262  A    between atoms: _639  and  _640
REMARK  263  A    between atoms: _639  and  _642
REMARK  264  A    between atoms: _642  and  _643
REMARK  265  A    between atoms: _646  and  _648
REMARK  266  A    between atoms: _648  and  _649
REMARK  267  A    between atoms: _648  and  _651
REMARK  268  A    between atoms: _651  and  _652
REMARK                            x       y       z     vdW  Elec       q    Type
REMARK                         _______ _______ _______ _____ _____    ______ ____
ROOT
ATOM      1  CA  MET A   1      -9.572  -1.877   1.759  0.00  0.00    +0.134 C 
ENDROOT
BRANCH   1   2
ATOM      2  N   MET A   1     -10.811  -2.671   1.765  0.00  0.00    -0.239 NA
ATOM      3  H   MET A   1     -11.586  -2.422   1.118  0.00  0.00    +0.142 HD
ENDBRANCH   1   2
BRANCH   1   4
ATOM      4  C   MET A   1      -9.485  -0.938   2.982  0.00  0.00    +0.224 C 
ATOM      5  O   MET A   1      -8.393  -0.714   3.541  0.00  0.00    -0.287 OA
ENDBRANCH   1   4
BRANCH   1   6
ATOM      6  CB  MET A   1      -9.433  -1.076   0.459  0.00  0.00    +0.037 C 
BRANCH   6   7
ATOM      7  CG  MET A   1      -8.092  -0.369   0.322  0.00  0.00    +0.059 C 
BRANCH   7   8
ATOM      8  SD  MET A   1      -7.943   0.614  -1.187  0.00  0.00    -0.139 S 
ATOM      9  CE  MET A   1      -7.821  -0.678  -2.413  0.00  0.00    +0.069 C 
ENDBRANCH   7   8
ENDBRANCH   6   7
ENDBRANCH   1   6
TORSDOF 5
REMARK  Name = ../refined-set-2016/3f8c/3f8c_pocket.pdb
REMARK  268 active torsions:
REMARK  status: ('A' for Active; 'I' for Inactive)
REMARK    1  A    between atoms: _1  and  _5
REMARK    2  A    between atoms: _5  and  _6
REMARK    3  A    between atoms: _5  and  _8
REMARK    4  A    between atoms: _8  and  _9
REMARK    5  A    between atoms: _9  and  _10
REMARK    6  A    between atoms: _14  and  _15
REMARK    7  A    between atoms: _20  and  _22
REMARK    8  A    between atoms: _22  and  _23
REMARK    9  A    between atoms: _22  and  _25
REMARK   10  A    between atoms: _25  and  _26
REMARK   11  A    between atoms: _26  and  _27
REMARK   12  A    between atoms: _29  and  _31
REMARK   13  A    between atoms: _31  and  _32
REMARK   14  A    between atoms: _31  and  _34
REMARK   15  A    between atoms: _34  and  _35
REMARK   16  A    between atoms: _35  and  _36
REMARK   17  A    between atoms: _36  and  _37
REMARK   18  A    between atoms: _46  and  _48
REMARK   19  A    between atoms: _48  and  _49
REMARK   20  A    between atoms: _52  and  _54
REMARK   21  A    between atoms: _54  and  _55
REMARK   22  A    between atoms: _54  and  _57
REMARK   23  A    between atoms: _57  and  _58
REMARK   24  A    between atoms: _58  and  _59
REMARK   25  A    between atoms: _64  and  _66
REMARK   26  A    between atoms: _66  and  _67
REMARK   27  A    between atoms: _66  and  _69
REMARK   28  A    between atoms: _69  and  _70
REMARK   29  A    between atoms: _73  and  _75
REMARK   30  A    between atoms: _75  and  _76
REMARK   31  A    between atoms: _75  and  _78
REMARK   32  A    between atoms: _78  and  _79
REMARK   33  A    between atoms: _84  and  _86
REMARK   34  A    between atoms: _86  and  _87
REMARK   35  A    between atoms: _86  and  _89
REMARK   36  A    between atoms: _92  and  _94
REMARK   37  A    between atoms: _94  and  _95
REMARK   38  A    between atoms: _94  and  _97
REMARK   39  A    between atoms: _97  and  _98
REMARK   40  A    between atoms: _101  and  _103
REMARK   41  A    between atoms: _103  and  _104
REMARK   42  A    between atoms: _103  and  _106
REMARK   43  A    between atoms: _106  and  _107
REMARK   44  A    between atoms: _110  and  _112
REMARK   45  A    between atoms: _112  and  _113
REMARK   46  A    between atoms: _112  and  _115
REMARK   47  A    between atoms: _115  and  _116
REMARK   48  A    between atoms: _121  and  _123
REMARK   49  A    between atoms: _123  and  _124
REMARK   50  A    between atoms: _123  and  _126
REMARK   51  A    between atoms: _126  and  _127
REMARK   52  A    between atoms: _127  and  _128
REMARK   53  A    between atoms: _128  and  _129
REMARK   54  A    between atoms: _129  and  _130
REMARK   55  A    between atoms: _134  and  _136
REMARK   56  A    between atoms: _136  and  _137
REMARK   57  A    between atoms: _136  and  _139
REMARK   58  A    between atoms: _139  and  _140
REMARK   59  A    between atoms: _140  and  _141
REMARK   60  A    between atoms: _141  and  _142
REMARK   61  A    between atoms: _151  and  _153
REMARK   62  A    between atoms: _153  and  _154
REMARK   63  A    between atoms: _153  and  _156
REMARK   64  A    between atoms: _156  and  _157
REMARK   65  A    between atoms: _160  and  _162
REMARK   66  A    between atoms: _162  and  _163
REMARK   67  A    between atoms: _162  and  _165
REMARK   68  A    between atoms: _165  and  _166
REMARK   69  A    between atoms: _169  and  _171
REMARK   70  A    between atoms: _171  and  _172
REMARK   71  A    between atoms: _171  and  _174
REMARK   72  A    between atoms: _174  and  _175
REMARK   73  A    between atoms: _178  and  _180
REMARK   74  A    between atoms: _180  and  _181
REMARK   75  A    between atoms: _180  and  _183
REMARK   76  A    between atoms: _183  and  _184
REMARK   77  A    between atoms: _187  and  _189
REMARK   78  A    between atoms: _189  and  _190
REMARK   79  A    between atoms: _189  and  _192
REMARK   80  A    between atoms: _192  and  _193
REMARK   81  A    between atoms: _196  and  _198
REMARK   82  A    between atoms: _198  and  _199
REMARK   83  A    between atoms: _201  and  _203
REMARK   84  A    between atoms: _203  and  _204
REMARK   85  A    between atoms: _203  and  _206
REMARK   86  A    between atoms: _206  and  _207
REMARK   87  A    between atoms: _212  and  _214
REMARK   88  A    between atoms: _214  and  _215
REMARK   89  A    between atoms: _214  and  _217
REMARK   90  A    between atoms: _217  and  _218
REMARK   91  A    between atoms: _218  and  _219
REMARK   92  A    between atoms: _222  and  _224
REMARK   93  A    between atoms: _224  and  _225
REMARK   94  A    between atoms: _224  and  _227
REMARK   95  A    between atoms: _227  and  _228
REMARK   96  A    between atoms: _233  and  _235
REMARK   97  A    between atoms: _235  and  _236
REMARK   98  A    between atoms: _235  and  _238
REMARK   99  A    between atoms: _238  and  _239
REMARK  100  A    between atoms: _239  and  _240
REMARK  101  A    between atoms: _242  and  _244
REMARK  102  A    between atoms: _244  and  _245
REMARK  103  A    between atoms: _244  and  _247
REMARK  104  A    between atoms: _247  and  _248
REMARK  105  A    between atoms: _248  and  _249
REMARK  106  A    between atoms: _249  and  _250
REMARK  107  A    between atoms: _259  and  _261
REMARK  108  A    between atoms: _261  and  _262
REMARK  109  A    between atoms: _261  and  _264
REMARK  110  A    between atoms: _264  and  _265
REMARK  111  A    between atoms: _268  and  _270
REMARK  112  A    between atoms: _270  and  _271
REMARK  113  A    between atoms: _274  and  _276
REMARK  114  A    between atoms: _276  and  _277
REMARK  115  A    between atoms: _276  and  _279
REMARK  116  A    between atoms: _279  and  _280
REMARK  117  A    between atoms: _286  and  _288
REMARK  118  A    between atoms: _288  and  _289
REMARK  119  A    between atoms: _288  and  _291
REMARK  120  A    between atoms: _291  and  _292
REMARK  121  A    between atoms: _292  and  _293
REMARK  122  A    between atoms: _296  and  _298
REMARK  123  A    between atoms: _298  and  _299
REMARK  124  A    between atoms: _298  and  _301
REMARK  125  A    between atoms: _301  and  _302
REMARK  126  A    between atoms: _304  and  _306
REMARK  127  A    between atoms: _306  and  _307
REMARK  128  A    between atoms: _306  and  _309
REMARK  129  A    between atoms: _309  and  _310
REMARK  130  A    between atoms: _320  and  _322
REMARK  131  A    between atoms: _322  and  _323
REMARK  132  A    between atoms: _322  and  _325
REMARK  133  A    between atoms: _325  and  _326
REMARK  134  A    between atoms: _328  and  _330
REMARK  135  A    between atoms: _330  and  _331
REMARK  136  A    between atoms: _330  and  _333
REMARK  137  A    between atoms: _336  and  _338
REMARK  138  A    between atoms: _338  and  _339
REMARK  139  A    between atoms: _338  and  _341
REMARK  140  A    between atoms: _341  and  _342
REMARK  141  A    between atoms: _345  and  _347
REMARK  142  A    between atoms: _347  and  _348
REMARK  143  A    between atoms: _347  and  _350
REMARK  144  A    between atoms: _350  and  _351
REMARK  145  A    between atoms: _354  and  _358
REMARK  146  A    between atoms: _358  and  _359
REMARK  147  A    between atoms: _358  and  _361
REMARK  148  A    between atoms: _361  and  _362
REMARK  149  A    between atoms: _362  and  _363
REMARK  150  A    between atoms: _367  and  _368
REMARK  151  A    between atoms: _373  and  _375
REMARK  152  A    between atoms: _375  and  _376
REMARK  153  A    between atoms: _375  and  _378
REMARK  154  A    between atoms: _378  and  _379
REMARK  155  A    between atoms: _379  and  _380
REMARK  156  A    between atoms: _382  and  _384
REMARK  157  A    between atoms: _384  and  _385
REMARK  158  A    between atoms: _388  and  _390
REMARK  159  A    between atoms: _390  and  _391
REMARK  160  A    between atoms: _390  and  _393
REMARK  161  A    between atoms: _393  and  _394
REMARK  162  A    between atoms: _394  and  _395
REMARK  163  A    between atoms: _400  and  _402
REMARK  164  A    between atoms: _402  and  _403
REMARK  165  A    between atoms: _402  and  _405
REMARK  166  A    between atoms: _405  and  _406
REMARK  167  A    between atoms: _411  and  _413
REMARK  168  A    between atoms: _413  and  _414
REMARK  169  A    between atoms: _413  and  _416
REMARK  170  A    between atoms: _419  and  _421
REMARK  171  A    between atoms: _421  and  _422
REMARK  172  A    between atoms: _421  and  _424
REMARK  173  A    between atoms: _424  and  _425
REMARK  174  A    between atoms: _428  and  _430
REMARK  175  A    between atoms: _430  and  _431
REMARK  176  A    between atoms: _430  and  _433
REMARK  177  A    between atoms: _433  and  _434
REMARK  178  A    between atoms: _437  and  _439
REMARK  179  A    between atoms: _439  and  _440
REMARK  180  A    between atoms: _439  and  _442
REMARK  181  A    between atoms: _442  and  _443
REMARK  182  A    between atoms: _448  and  _450
REMARK  183  A    between atoms: _450  and  _451
REMARK  184  A    between atoms: _450  and  _453
REMARK  185  A    between atoms: _453  and  _454
REMARK  186  A    between atoms: _454  and  _455
REMARK  187  A    between atoms: _455  and  _456
REMARK  188  A    between atoms: _456  and  _457
REMARK  189  A    between atoms: _461  and  _463
REMARK  190  A    between atoms: _463  and  _464
REMARK  191  A    between atoms: _463  and  _466
REMARK  192  A    between atoms: _466  and  _467
REMARK  193  A    between atoms: _470  and  _472
REMARK  194  A    between atoms: _472  and  _473
REMARK  195  A    between atoms: _472  and  _475
REMARK  196  A    between atoms: _475  and  _476
REMARK  197  A    between atoms: _479  and  _481
REMARK  198  A    between atoms: _481  and  _482
REMARK  199  A    between atoms: _481  and  _484
REMARK  200  A    between atoms: _484  and  _485
REMARK  201  A    between atoms: _488  and  _490
REMARK  202  A    between atoms: _490  and  _491
REMARK  203  A    between atoms: _490  and  _493
REMARK  204  A    between atoms: _493  and  _494
REMARK  205  A    between atoms: _497  and  _499
REMARK  206  A    between atoms: _499  and  _500
REMARK  207  A    between atoms: _502  and  _504
REMARK  208  A    between atoms: _504  and  _505
REMARK  209  A    between atoms: _504  and  _507
REMARK  210  A    between atoms: _507  and  _508
REMARK  211  A    between atoms: _513  and  _515
REMARK  212  A    between atoms: _515  and  _516
REMARK  213  A    between atoms: _515  and  _518
REMARK  214  A    between atoms: _518  and  _519
REMARK  215  A    between atoms: _519  and  _520
REMARK  216  A    between atoms: _523  and  _525
REMARK  217  A    between atoms: _525  and  _526
REMARK  218  A    between atoms: _525  and  _528
REMARK  219  A    between atoms: _528  and  _529
REMARK  220  A    between atoms: _534  and  _536
REMARK  221  A    between atoms: _536  and  _537
REMARK  222  A    between atoms: _536  and  _539
REMARK  223  A    between atoms: _539  and  _540
REMARK  224  A    between atoms: _540  and  _541
REMARK  225  A    between atoms: _543  and  _545
REMARK  226  A    between atoms: _545  and  _546
REMARK  227  A    between atoms: _545  and  _548
REMARK  228  A    between atoms: _548  and  _549
REMARK  229  A    between atoms: _549  and  _550
REMARK  230  A    between atoms: _550  and  _551
REMARK  231  A    between atoms: _560  and  _562
REMARK  232  A    between atoms: _562  and  _563
REMARK  233  A    between atoms: _562  and  _565
REMARK  234  A    between atoms: _565  and  _566
REMARK  235  A    between atoms: _569  and  _571
REMARK  236  A    between atoms: _571  and  _572
REMARK  237  A    between atoms: _575  and  _577
REMARK  238  A    between atoms: _577  and  _578
REMARK  239  A    between atoms: _577  and  _580
REMARK  240  A    between atoms: _580  and  _581
REMARK  241  A    between atoms: _587  and  _589
REMARK  242  A    between atoms: _589  and  _590
REMARK  243  A    between atoms: _589  and  _592
REMARK  244  A    between atoms: _592  and  _593
REMARK  245  A    between atoms: _593  and  _594
REMARK  246  A    between atoms: _597  and  _599
REMARK  247  A    between atoms: _599  and  _600
REMARK  248  A    between atoms: _599  and  _602
REMARK  249  A    between atoms: _602  and  _603
REMARK  250  A    between atoms: _605  and  _607
REMARK  251  A    between atoms: _607  and  _608
REMARK  252  A    between atoms: _607  and  _610
REMARK  253  A    between atoms: _610  and  _611
REMARK  254  A    between atoms: _621  and  _623
REMARK  255  A    between atoms: _623  and  _624
REMARK  256  A    between atoms: _623  and  _626
REMARK  257  A    between atoms: _626  and  _627
REMARK  258  A    between atoms: _629  and  _631
REMARK  259  A    between atoms: _631  and  _632
REMARK  260  A    between atoms: _631  and  _634
REMARK  261  A    between atoms: _637  and  _639
REMARK  262  A    between atoms: _639  and  _640
REMARK  263  A    between atoms: _639  and  _642
REMARK  264  A    between atoms: _642  and  _643
REMARK  265  A    between atoms: _646  and  _648
REMARK  266  A    between atoms: _648  and  _649
REMARK  267  A    between atoms: _648  and  _651
REMARK  268  A    between atoms: _651  and  _652
REMARK                            x       y       z     vdW  Elec       q    Type
REMARK                         _______ _______ _______ _____ _____    ______ ____
ROOT
ATOM      1  CA  GLN A   2      -5.961   0.257   6.264  0.00  0.00    +0.137 C 
ENDROOT
BRANCH   1   4
ATOM      2  C   ALA A   1      -6.285  -2.167   6.220  0.00  0.00    +0.238 C 
ATOM      3  O   ALA A   1      -5.299  -2.358   6.914  0.00  0.00    -0.274 OA
ATOM      4  N   GLN A   2      -6.690  -0.948   5.861  0.00  0.00    -0.298 N 
ATOM      5  H   GLN A   2      -7.547  -0.850   5.279  0.00  0.00    +0.150 HD
BRANCH   2   6
ATOM      6  CA  ALA A   1      -7.119  -3.343   5.701  0.00  0.00    +0.145 C 
ATOM      7  CB  ALA A   1      -6.721  -3.693   4.242  0.00  0.00    +0.028 C 
BRANCH   6   8
ATOM      8  N   ALA A   1      -8.539  -3.021   5.785  0.00  0.00    -0.238 NA
ATOM      9  H   ALA A   1      -9.096  -2.954   4.909  0.00  0.00    +0.142 HD
ENDBRANCH   6   8
ENDBRANCH   2   6
ENDBRANCH   1   4
BRANCH   1  10
ATOM     10  C   GLN A   2      -6.019   0.435   7.795  0.00  0.00    +0.227 C 
ATOM     11  O   GLN A   2      -5.016   0.756   8.441  0.00  0.00    -0.286 OA
ENDBRANCH   1  10
BRANCH   1  12
ATOM     12  CB  GLN A   2      -6.538   1.489   5.547  0.00  0.00    +0.037 C 
BRANCH  12  13
ATOM     13  CG  GLN A   2      -6.230   1.515   4.059  0.00  0.00    +0.087 C 
BRANCH  13  14
ATOM     14  CD  GLN A   2      -7.018   2.543   3.329  0.00  0.00    +0.219 C 
ATOM     15  OE1 GLN A   2      -8.014   3.062   3.855  0.00  0.00    -0.275 OA
ATOM     16  NE2 GLN A   2      -6.603   2.853   2.069  0.00  0.00    -0.329 N 
ATOM     17 HE21 GLN A   2      -5.761   2.391   1.670  0.00  0.00    +0.145 HD
ATOM     18 HE22 GLN A   2      -7.128   3.552   1.506  0.00  0.00    +0.145 HD
ENDBRANCH  13  14
ENDBRANCH  12  13
ENDBRANCH   1  12
TORSDOF 7
REMARK  Name = ../refined-set-2016/3f8c/3f8c_pocket.pdb
REMARK  268 active torsions:
REMARK  status: ('A' for Active; 'I' for Inactive)
REMARK    1  A    between atoms: _1  and  _5
REMARK    2  A    between atoms: _5  and  _6
REMARK    3  A    between atoms: _5  and  _8
REMARK    4  A    between atoms: _8  and  _9
REMARK    5  A    between atoms: _9  and  _10
REMARK    6  A    between atoms: _14  and  _15
REMARK    7  A    between atoms: _20  and  _22
REMARK    8  A    between atoms: _22  and  _23
REMARK    9  A    between atoms: _22  and  _25
REMARK   10  A    between atoms: _25  and  _26
REMARK   11  A    between atoms: _26  and  _27
REMARK   12  A    between atoms: _29  and  _31
REMARK   13  A    between atoms: _31  and  _32
REMARK   14  A    between atoms: _31  and  _34
REMARK   15  A    between atoms: _34  and  _35
REMARK   16  A    between atoms: _35  and  _36
REMARK   17  A    between atoms: _36  and  _37
REMARK   18  A    between atoms: _46  and  _48
REMARK   19  A    between atoms: _48  and  _49
REMARK   20  A    between atoms: _52  and  _54
REMARK   21  A    between atoms: _54  and  _55
REMARK   22  A    between atoms: _54  and  _57
REMARK   23  A    between atoms: _57  and  _58
REMARK   24  A    between atoms: _58  and  _59
REMARK   25  A    between atoms: _64  and  _66
REMARK   26  A    between atoms: _66  and  _67
REMARK   27  A    between atoms: _66  and  _69
REMARK   28  A    between atoms: _69  and  _70
REMARK   29  A    between atoms: _73  and  _75
REMARK   30  A    between atoms: _75  and  _76
REMARK   31  A    between atoms: _75  and  _78
REMARK   32  A    between atoms: _78  and  _79
REMARK   33  A    between atoms: _84  and  _86
REMARK   34  A    between atoms: _86  and  _87
REMARK   35  A    between atoms: _86  and  _89
REMARK   36  A    between atoms: _92  and  _94
REMARK   37  A    between atoms: _94  and  _95
REMARK   38  A    between atoms: _94  and  _97
REMARK   39  A    between atoms: _97  and  _98
REMARK   40  A    between atoms: _101  and  _103
REMARK   41  A    between atoms: _103  and  _104
REMARK   42  A    between atoms: _103  and  _106
REMARK   43  A    between atoms: _106  and  _107
REMARK   44  A    between atoms: _110  and  _112
REMARK   45  A    between atoms: _112  and  _113
REMARK   46  A    between atoms: _112  and  _115
REMARK   47  A    between atoms: _115  and  _116
REMARK   48  A    between atoms: _121  and  _123
REMARK   49  A    between atoms: _123  and  _124
REMARK   50  A    between atoms: _123  and  _126
REMARK   51  A    between atoms: _126  and  _127
REMARK   52  A    between atoms: _127  and  _128
REMARK   53  A    between atoms: _128  and  _129
REMARK   54  A    between atoms: _129  and  _130
REMARK   55  A    between atoms: _134  and  _136
REMARK   56  A    between atoms: _136  and  _137
REMARK   57  A    between atoms: _136  and  _139
REMARK   58  A    between atoms: _139  and  _140
REMARK   59  A    between atoms: _140  and  _141
REMARK   60  A    between atoms: _141  and  _142
REMARK   61  A    between atoms: _151  and  _153
REMARK   62  A    between atoms: _153  and  _154
REMARK   63  A    between atoms: _153  and  _156
REMARK   64  A    between atoms: _156  and  _157
REMARK   65  A    between atoms: _160  and  _162
REMARK   66  A    between atoms: _162  and  _163
REMARK   67  A    between atoms: _162  and  _165
REMARK   68  A    between atoms: _165  and  _166
REMARK   69  A    between atoms: _169  and  _171
REMARK   70  A    between atoms: _171  and  _172
REMARK   71  A    between atoms: _171  and  _174
REMARK   72  A    between atoms: _174  and  _175
REMARK   73  A    between atoms: _178  and  _180
REMARK   74  A    between atoms: _180  and  _181
REMARK   75  A    between atoms: _180  and  _183
REMARK   76  A    between atoms: _183  and  _184
REMARK   77  A    between atoms: _187  and  _189
REMARK   78  A    between atoms: _189  and  _190
REMARK   79  A    between atoms: _189  and  _192
REMARK   80  A    between atoms: _192  and  _193
REMARK   81  A    between atoms: _196  and  _198
REMARK   82  A    between atoms: _198  and  _199
REMARK   83  A    between atoms: _201  and  _203
REMARK   84  A    between atoms: _203  and  _204
REMARK   85  A    between atoms: _203  and  _206
REMARK   86  A    between atoms: _206  and  _207
REMARK   87  A    between atoms: _212  and  _214
REMARK   88  A    between atoms: _214  and  _215
REMARK   89  A    between atoms: _214  and  _217
REMARK   90  A    between atoms: _217  and  _218
REMARK   91  A    between atoms: _218  and  _219
REMARK   92  A    between atoms: _222  and  _224
REMARK   93  A    between atoms: _224  and  _225
REMARK   94  A    between atoms: _224  and  _227
REMARK   95  A    between atoms: _227  and  _228
REMARK   96  A    between atoms: _233  and  _235
REMARK   97  A    between atoms: _235  and  _236
REMARK   98  A    between atoms: _235  and  _238
REMARK   99  A    between atoms: _238  and  _239
REMARK  100  A    between atoms: _239  and  _240
REMARK  101  A    between atoms: _242  and  _244
REMARK  102  A    between atoms: _244  and  _245
REMARK  103  A    between atoms: _244  and  _247
REMARK  104  A    between atoms: _247  and  _248
REMARK  105  A    between atoms: _248  and  _249
REMARK  106  A    between atoms: _249  and  _250
REMARK  107  A    between atoms: _259  and  _261
REMARK  108  A    between atoms: _261  and  _262
REMARK  109  A    between atoms: _261  and  _264
REMARK  110  A    between atoms: _264  and  _265
REMARK  111  A    between atoms: _268  and  _270
REMARK  112  A    between atoms: _270  and  _271
REMARK  113  A    between atoms: _274  and  _276
REMARK  114  A    between atoms: _276  and  _277
REMARK  115  A    between atoms: _276  and  _279
REMARK  116  A    between atoms: _279  and  _280
REMARK  117  A    between atoms: _286  and  _288
REMARK  118  A    between atoms: _288  and  _289
REMARK  119  A    between atoms: _288  and  _291
REMARK  120  A    between atoms: _291  and  _292
REMARK  121  A    between atoms: _292  and  _293
REMARK  122  A    between atoms: _296  and  _298
REMARK  123  A    between atoms: _298  and  _299
REMARK  124  A    between atoms: _298  and  _301
REMARK  125  A    between atoms: _301  and  _302
REMARK  126  A    between atoms: _304  and  _306
REMARK  127  A    between atoms: _306  and  _307
REMARK  128  A    between atoms: _306  and  _309
REMARK  129  A    between atoms: _309  and  _310
REMARK  130  A    between atoms: _320  and  _322
REMARK  131  A    between atoms: _322  and  _323
REMARK  132  A    between atoms: _322  and  _325
REMARK  133  A    between atoms: _325  and  _326
REMARK  134  A    between atoms: _328  and  _330
REMARK  135  A    between atoms: _330  and  _331
REMARK  136  A    between atoms: _330  and  _333
REMARK  137  A    between atoms: _336  and  _338
REMARK  138  A    between atoms: _338  and  _339
REMARK  139  A    between atoms: _338  and  _341
REMARK  140  A    between atoms: _341  and  _342
REMARK  141  A    between atoms: _345  and  _347
REMARK  142  A    between atoms: _347  and  _348
REMARK  143  A    between atoms: _347  and  _350
REMARK  144  A    between atoms: _350  and  _351
REMARK  145  A    between atoms: _354  and  _358
REMARK  146  A    between atoms: _358  and  _359
REMARK  147  A    between atoms: _358  and  _361
REMARK  148  A    between atoms: _361  and  _362
REMARK  149  A    between atoms: _362  and  _363
REMARK  150  A    between atoms: _367  and  _368
REMARK  151  A    between atoms: _373  and  _375
REMARK  152  A    between atoms: _375  and  _376
REMARK  153  A    between atoms: _375  and  _378
REMARK  154  A    between atoms: _378  and  _379
REMARK  155  A    between atoms: _379  and  _380
REMARK  156  A    between atoms: _382  and  _384
REMARK  157  A    between atoms: _384  and  _385
REMARK  158  A    between atoms: _388  and  _390
REMARK  159  A    between atoms: _390  and  _391
REMARK  160  A    between atoms: _390  and  _393
REMARK  161  A    between atoms: _393  and  _394
REMARK  162  A    between atoms: _394  and  _395
REMARK  163  A    between atoms: _400  and  _402
REMARK  164  A    between atoms: _402  and  _403
REMARK  165  A    between atoms: _402  and  _405
REMARK  166  A    between atoms: _405  and  _406
REMARK  167  A    between atoms: _411  and  _413
REMARK  168  A    between atoms: _413  and  _414
REMARK  169  A    between atoms: _413  and  _416
REMARK  170  A    between atoms: _419  and  _421
REMARK  171  A    between atoms: _421  and  _422
REMARK  172  A    between atoms: _421  and  _424
REMARK  173  A    between atoms: _424  and  _425
REMARK  174  A    between atoms: _428  and  _430
REMARK  175  A    between atoms: _430  and  _431
REMARK  176  A    between atoms: _430  and  _433
REMARK  177  A    between atoms: _433  and  _434
REMARK  178  A    between atoms: _437  and  _439
REMARK  179  A    between atoms: _439  and  _440
REMARK  180  A    between atoms: _439  and  _442
REMARK  181  A    between atoms: _442  and  _443
REMARK  182  A    between atoms: _448  and  _450
REMARK  183  A    between atoms: _450  and  _451
REMARK  184  A    between atoms: _450  and  _453
REMARK  185  A    between atoms: _453  and  _454
REMARK  186  A    between atoms: _454  and  _455
REMARK  187  A    between atoms: _455  and  _456
REMARK  188  A    between atoms: _456  and  _457
REMARK  189  A    between atoms: _461  and  _463
REMARK  190  A    between atoms: _463  and  _464
REMARK  191  A    between atoms: _463  and  _466
REMARK  192  A    between atoms: _466  and  _467
REMARK  193  A    between atoms: _470  and  _472
REMARK  194  A    between atoms: _472  and  _473
REMARK  195  A    between atoms: _472  and  _475
REMARK  196  A    between atoms: _475  and  _476
REMARK  197  A    between atoms: _479  and  _481
REMARK  198  A    between atoms: _481  and  _482
REMARK  199  A    between atoms: _481  and  _484
REMARK  200  A    between atoms: _484  and  _485
REMARK  201  A    between atoms: _488  and  _490
REMARK  202  A    between atoms: _490  and  _491
REMARK  203  A    between atoms: _490  and  _493
REMARK  204  A    between atoms: _493  and  _494
REMARK  205  A    between atoms: _497  and  _499
REMARK  206  A    between atoms: _499  and  _500
REMARK  207  A    between atoms: _502  and  _504
REMARK  208  A    between atoms: _504  and  _505
REMARK  209  A    between atoms: _504  and  _507
REMARK  210  A    between atoms: _507  and  _508
REMARK  211  A    between atoms: _513  and  _515
REMARK  212  A    between atoms: _515  and  _516
REMARK  213  A    between atoms: _515  and  _518
REMARK  214  A    between atoms: _518  and  _519
REMARK  215  A    between atoms: _519  and  _520
REMARK  216  A    between atoms: _523  and  _525
REMARK  217  A    between atoms: _525  and  _526
REMARK  218  A    between atoms: _525  and  _528
REMARK  219  A    between atoms: _528  and  _529
REMARK  220  A    between atoms: _534  and  _536
REMARK  221  A    between atoms: _536  and  _537
REMARK  222  A    between atoms: _536  and  _539
REMARK  223  A    between atoms: _539  and  _540
REMARK  224  A    between atoms: _540  and  _541
REMARK  225  A    between atoms: _543  and  _545
REMARK  226  A    between atoms: _545  and  _546
REMARK  227  A    between atoms: _545  and  _548
REMARK  228  A    between atoms: _548  and  _549
REMARK  229  A    between atoms: _549  and  _550
REMARK  230  A    between atoms: _550  and  _551
REMARK  231  A    between atoms: _560  and  _562
REMARK  232  A    between atoms: _562  and  _563
REMARK  233  A    between atoms: _562  and  _565
REMARK  234  A    between atoms: _565  and  _566
REMARK  235  A    between atoms: _569  and  _571
REMARK  236  A    between atoms: _571  and  _572
REMARK  237  A    between atoms: _575  and  _577
REMARK  238  A    between atoms: _577  and  _578
REMARK  239  A    between atoms: _577  and  _580
REMARK  240  A    between atoms: _580  and  _581
REMARK  241  A    between atoms: _587  and  _589
REMARK  242  A    between atoms: _589  and  _590
REMARK  243  A    between atoms: _589  and  _592
REMARK  244  A    between atoms: _592  and  _593
REMARK  245  A    between atoms: _593  and  _594
REMARK  246  A    between atoms: _597  and  _599
REMARK  247  A    between atoms: _599  and  _600
REMARK  248  A    between atoms: _599  and  _602
REMARK  249  A    between atoms: _602  and  _603
REMARK  250  A    between atoms: _605  and  _607
REMARK  251  A    between atoms: _607  and  _608
REMARK  252  A    between atoms: _607  and  _610
REMARK  253  A    between atoms: _610  and  _611
REMARK  254  A    between atoms: _621  and  _623
REMARK  255  A    between atoms: _623  and  _624
REMARK  256  A    between atoms: _623  and  _626
REMARK  257  A    between atoms: _626  and  _627
REMARK  258  A    between atoms: _629  and  _631
REMARK  259  A    between atoms: _631  and  _632
REMARK  260  A    between atoms: _631  and  _634
REMARK  261  A    between atoms: _637  and  _639
REMARK  262  A    between atoms: _639  and  _640
REMARK  263  A    between atoms: _639  and  _642
REMARK  264  A    between atoms: _642  and  _643
REMARK  265  A    between atoms: _646  and  _648
REMARK  266  A    between atoms: _648  and  _649
REMARK  267  A    between atoms: _648  and  _651
REMARK  268  A    between atoms: _651  and  _652
REMARK                            x       y       z     vdW  Elec       q    Type
REMARK                         _______ _______ _______ _____ _____    ______ ____
ROOT
ATOM      1  CA  VAL A   2      -2.295  -1.664   9.165  0.00  0.00    +0.148 C 
ENDROOT
BRANCH   1   4
ATOM      2  C   ASN A   1      -4.116  -2.620  10.464  0.00  0.00    +0.239 C 
ATOM      3  O   ASN A   1      -3.401  -2.812  11.445  0.00  0.00    -0.274 OA
ATOM      4  N   VAL A   2      -3.671  -2.081   9.328  0.00  0.00    -0.297 N 
ATOM      5  H   VAL A   2      -4.333  -1.957   8.536  0.00  0.00    +0.150 HD
BRANCH   2   6
ATOM      6  CA  ASN A   1      -5.573  -3.057  10.460  0.00  0.00    +0.154 C 
BRANCH   6   7
ATOM      7  N   ASN A   1      -6.464  -2.010   9.948  0.00  0.00    -0.238 NA
ATOM      8  H   ASN A   1      -7.090  -2.228   9.147  0.00  0.00    +0.142 HD
ENDBRANCH   6   7
BRANCH   6   9
ATOM      9  CB  ASN A   1      -5.683  -4.308   9.603  0.00  0.00    +0.111 C 
BRANCH   9  10
ATOM     10  CG  ASN A   1      -6.751  -5.218  10.066  0.00  0.00    +0.221 C 
ATOM     11  OD1 ASN A   1      -7.311  -5.028  11.127  0.00  0.00    -0.275 OA
ATOM     12  ND2 ASN A   1      -7.049  -6.230   9.271  0.00  0.00    -0.329 N 
ATOM     13 HD21 ASN A   1      -7.791  -6.905   9.545  0.00  0.00    +0.145 HD
ATOM     14 HD22 ASN A   1      -6.542  -6.352   8.371  0.00  0.00    +0.145 HD
ENDBRANCH   9  10
ENDBRANCH   6   9
ENDBRANCH   2   6
ENDBRANCH   1   4
BRANCH   1  15
ATOM     15  C   VAL A   2      -1.928  -0.552  10.158  0.00  0.00    +0.241 C 
ATOM     16  O   VAL A   2      -0.819  -0.518  10.695  0.00  0.00    -0.273 OA
ATOM     17  N   ILE A   3      -2.864   0.353  10.403  0.00  0.00    -0.298 N 
ATOM     18  H   ILE A   3      -3.778   0.293   9.911  0.00  0.00    +0.150 HD
BRANCH  17  19
ATOM     19  CA  ILE A   3      -2.629   1.427  11.349  0.00  0.00    +0.137 C 
BRANCH  19  20
ATOM     20  C   ILE A   3      -2.482   0.872  12.771  0.00  0.00    +0.227 C 
ATOM     21  O   ILE A   3      -1.522   1.174  13.463  0.00  0.00    -0.286 OA
ENDBRANCH  19  20
BRANCH  19  22
ATOM     22  CB  ILE A   3      -3.745   2.461  11.302  0.00  0.00    +0.026 C 
ATOM     23  CG2 ILE A   3      -3.667   3.381  12.505  0.00  0.00    +0.002 C 
BRANCH  22  24
ATOM     24  CG1 ILE A   3      -3.648   3.268   9.988  0.00  0.00    +0.002 C 
ATOM     25  CD1 ILE A   3      -4.832   4.183   9.744  0.00  0.00    +0.000 C 
ENDBRANCH  22  24
ENDBRANCH  19  22
ENDBRANCH  17  19
ENDBRANCH   1  15
BRANCH   1  26
ATOM     26  CB  VAL A   2      -2.046  -1.196   7.723  0.00  0.00    +0.027 C 
ATOM     27  CG2 VAL A   2      -0.718  -0.456   7.607  0.00  0.00    +0.002 C 
ATOM     28  CG1 VAL A   2      -2.120  -2.423   6.739  0.00  0.00    +0.002 C 
ENDBRANCH   1  26
TORSDOF 11
REMARK  Name = ../refined-set-2016/3f8c/3f8c_pocket.pdb
REMARK  268 active torsions:
REMARK  status: ('A' for Active; 'I' for Inactive)
REMARK    1  A    between atoms: _1  and  _5
REMARK    2  A    between atoms: _5  and  _6
REMARK    3  A    between atoms: _5  and  _8
REMARK    4  A    between atoms: _8  and  _9
REMARK    5  A    between atoms: _9  and  _10
REMARK    6  A    between atoms: _14  and  _15
REMARK    7  A    between atoms: _20  and  _22
REMARK    8  A    between atoms: _22  and  _23
REMARK    9  A    between atoms: _22  and  _25
REMARK   10  A    between atoms: _25  and  _26
REMARK   11  A    between atoms: _26  and  _27
REMARK   12  A    between atoms: _29  and  _31
REMARK   13  A    between atoms: _31  and  _32
REMARK   14  A    between atoms: _31  and  _34
REMARK   15  A    between atoms: _34  and  _35
REMARK   16  A    between atoms: _35  and  _36
REMARK   17  A    between atoms: _36  and  _37
REMARK   18  A    between atoms: _46  and  _48
REMARK   19  A    between atoms: _48  and  _49
REMARK   20  A    between atoms: _52  and  _54
REMARK   21  A    between atoms: _54  and  _55
REMARK   22  A    between atoms: _54  and  _57
REMARK   23  A    between atoms: _57  and  _58
REMARK   24  A    between atoms: _58  and  _59
REMARK   25  A    between atoms: _64  and  _66
REMARK   26  A    between atoms: _66  and  _67
REMARK   27  A    between atoms: _66  and  _69
REMARK   28  A    between atoms: _69  and  _70
REMARK   29  A    between atoms: _73  and  _75
REMARK   30  A    between atoms: _75  and  _76
REMARK   31  A    between atoms: _75  and  _78
REMARK   32  A    between atoms: _78  and  _79
REMARK   33  A    between atoms: _84  and  _86
REMARK   34  A    between atoms: _86  and  _87
REMARK   35  A    between atoms: _86  and  _89
REMARK   36  A    between atoms: _92  and  _94
REMARK   37  A    between atoms: _94  and  _95
REMARK   38  A    between atoms: _94  and  _97
REMARK   39  A    between atoms: _97  and  _98
REMARK   40  A    between atoms: _101  and  _103
REMARK   41  A    between atoms: _103  and  _104
REMARK   42  A    between atoms: _103  and  _106
REMARK   43  A    between atoms: _106  and  _107
REMARK   44  A    between atoms: _110  and  _112
REMARK   45  A    between atoms: _112  and  _113
REMARK   46  A    between atoms: _112  and  _115
REMARK   47  A    between atoms: _115  and  _116
REMARK   48  A    between atoms: _121  and  _123
REMARK   49  A    between atoms: _123  and  _124
REMARK   50  A    between atoms: _123  and  _126
REMARK   51  A    between atoms: _126  and  _127
REMARK   52  A    between atoms: _127  and  _128
REMARK   53  A    between atoms: _128  and  _129
REMARK   54  A    between atoms: _129  and  _130
REMARK   55  A    between atoms: _134  and  _136
REMARK   56  A    between atoms: _136  and  _137
REMARK   57  A    between atoms: _136  and  _139
REMARK   58  A    between atoms: _139  and  _140
REMARK   59  A    between atoms: _140  and  _141
REMARK   60  A    between atoms: _141  and  _142
REMARK   61  A    between atoms: _151  and  _153
REMARK   62  A    between atoms: _153  and  _154
REMARK   63  A    between atoms: _153  and  _156
REMARK   64  A    between atoms: _156  and  _157
REMARK   65  A    between atoms: _160  and  _162
REMARK   66  A    between atoms: _162  and  _163
REMARK   67  A    between atoms: _162  and  _165
REMARK   68  A    between atoms: _165  and  _166
REMARK   69  A    between atoms: _169  and  _171
REMARK   70  A    between atoms: _171  and  _172
REMARK   71  A    between atoms: _171  and  _174
REMARK   72  A    between atoms: _174  and  _175
REMARK   73  A    between atoms: _178  and  _180
REMARK   74  A    between atoms: _180  and  _181
REMARK   75  A    between atoms: _180  and  _183
REMARK   76  A    between atoms: _183  and  _184
REMARK   77  A    between atoms: _187  and  _189
REMARK   78  A    between atoms: _189  and  _190
REMARK   79  A    between atoms: _189  and  _192
REMARK   80  A    between atoms: _192  and  _193
REMARK   81  A    between atoms: _196  and  _198
REMARK   82  A    between atoms: _198  and  _199
REMARK   83  A    between atoms: _201  and  _203
REMARK   84  A    between atoms: _203  and  _204
REMARK   85  A    between atoms: _203  and  _206
REMARK   86  A    between atoms: _206  and  _207
REMARK   87  A    between atoms: _212  and  _214
REMARK   88  A    between atoms: _214  and  _215
REMARK   89  A    between atoms: _214  and  _217
REMARK   90  A    between atoms: _217  and  _218
REMARK   91  A    between atoms: _218  and  _219
REMARK   92  A    between atoms: _222  and  _224
REMARK   93  A    between atoms: _224  and  _225
REMARK   94  A    between atoms: _224  and  _227
REMARK   95  A    between atoms: _227  and  _228
REMARK   96  A    between atoms: _233  and  _235
REMARK   97  A    between atoms: _235  and  _236
REMARK   98  A    between atoms: _235  and  _238
REMARK   99  A    between atoms: _238  and  _239
REMARK  100  A    between atoms: _239  and  _240
REMARK  101  A    between atoms: _242  and  _244
REMARK  102  A    between atoms: _244  and  _245
REMARK  103  A    between atoms: _244  and  _247
REMARK  104  A    between atoms: _247  and  _248
REMARK  105  A    between atoms: _248  and  _249
REMARK  106  A    between atoms: _249  and  _250
REMARK  107  A    between atoms: _259  and  _261
REMARK  108  A    between atoms: _261  and  _262
REMARK  109  A    between atoms: _261  and  _264
REMARK  110  A    between atoms: _264  and  _265
REMARK  111  A    between atoms: _268  and  _270
REMARK  112  A    between atoms: _270  and  _271
REMARK  113  A    between atoms: _274  and  _276
REMARK  114  A    between atoms: _276  and  _277
REMARK  115  A    between atoms: _276  and  _279
REMARK  116  A    between atoms: _279  and  _280
REMARK  117  A    between atoms: _286  and  _288
REMARK  118  A    between atoms: _288  and  _289
REMARK  119  A    between atoms: _288  and  _291
REMARK  120  A    between atoms: _291  and  _292
REMARK  121  A    between atoms: _292  and  _293
REMARK  122  A    between atoms: _296  and  _298
REMARK  123  A    between atoms: _298  and  _299
REMARK  124  A    between atoms: _298  and  _301
REMARK  125  A    between atoms: _301  and  _302
REMARK  126  A    between atoms: _304  and  _306
REMARK  127  A    between atoms: _306  and  _307
REMARK  128  A    between atoms: _306  and  _309
REMARK  129  A    between atoms: _309  and  _310
REMARK  130  A    between atoms: _320  and  _322
REMARK  131  A    between atoms: _322  and  _323
REMARK  132  A    between atoms: _322  and  _325
REMARK  133  A    between atoms: _325  and  _326
REMARK  134  A    between atoms: _328  and  _330
REMARK  135  A    between atoms: _330  and  _331
REMARK  136  A    between atoms: _330  and  _333
REMARK  137  A    between atoms: _336  and  _338
REMARK  138  A    between atoms: _338  and  _339
REMARK  139  A    between atoms: _338  and  _341
REMARK  140  A    between atoms: _341  and  _342
REMARK  141  A    between atoms: _345  and  _347
REMARK  142  A    between atoms: _347  and  _348
REMARK  143  A    between atoms: _347  and  _350
REMARK  144  A    between atoms: _350  and  _351
REMARK  145  A    between atoms: _354  and  _358
REMARK  146  A    between atoms: _358  and  _359
REMARK  147  A    between atoms: _358  and  _361
REMARK  148  A    between atoms: _361  and  _362
REMARK  149  A    between atoms: _362  and  _363
REMARK  150  A    between atoms: _367  and  _368
REMARK  151  A    between atoms: _373  and  _375
REMARK  152  A    between atoms: _375  and  _376
REMARK  153  A    between atoms: _375  and  _378
REMARK  154  A    between atoms: _378  and  _379
REMARK  155  A    between atoms: _379  and  _380
REMARK  156  A    between atoms: _382  and  _384
REMARK  157  A    between atoms: _384  and  _385
REMARK  158  A    between atoms: _388  and  _390
REMARK  159  A    between atoms: _390  and  _391
REMARK  160  A    between atoms: _390  and  _393
REMARK  161  A    between atoms: _393  and  _394
REMARK  162  A    between atoms: _394  and  _395
REMARK  163  A    between atoms: _400  and  _402
REMARK  164  A    between atoms: _402  and  _403
REMARK  165  A    between atoms: _402  and  _405
REMARK  166  A    between atoms: _405  and  _406
REMARK  167  A    between atoms: _411  and  _413
REMARK  168  A    between atoms: _413  and  _414
REMARK  169  A    between atoms: _413  and  _416
REMARK  170  A    between atoms: _419  and  _421
REMARK  171  A    between atoms: _421  and  _422
REMARK  172  A    between atoms: _421  and  _424
REMARK  173  A    between atoms: _424  and  _425
REMARK  174  A    between atoms: _428  and  _430
REMARK  175  A    between atoms: _430  and  _431
REMARK  176  A    between atoms: _430  and  _433
REMARK  177  A    between atoms: _433  and  _434
REMARK  178  A    between atoms: _437  and  _439
REMARK  179  A    between atoms: _439  and  _440
REMARK  180  A    between atoms: _439  and  _442
REMARK  181  A    between atoms: _442  and  _443
REMARK  182  A    between atoms: _448  and  _450
REMARK  183  A    between atoms: _450  and  _451
REMARK  184  A    between atoms: _450  and  _453
REMARK  185  A    between atoms: _453  and  _454
REMARK  186  A    between atoms: _454  and  _455
REMARK  187  A    between atoms: _455  and  _456
REMARK  188  A    between atoms: _456  and  _457
REMARK  189  A    between atoms: _461  and  _463
REMARK  190  A    between atoms: _463  and  _464
REMARK  191  A    between atoms: _463  and  _466
REMARK  192  A    between atoms: _466  and  _467
REMARK  193  A    between atoms: _470  and  _472
REMARK  194  A    between atoms: _472  and  _473
REMARK  195  A    between atoms: _472  and  _475
REMARK  196  A    between atoms: _475  and  _476
REMARK  197  A    between atoms: _479  and  _481
REMARK  198  A    between atoms: _481  and  _482
REMARK  199  A    between atoms: _481  and  _484
REMARK  200  A    between atoms: _484  and  _485
REMARK  201  A    between atoms: _488  and  _490
REMARK  202  A    between atoms: _490  and  _491
REMARK  203  A    between atoms: _490  and  _493
REMARK  204  A    between atoms: _493  and  _494
REMARK  205  A    between atoms: _497  and  _499
REMARK  206  A    between atoms: _499  and  _500
REMARK  207  A    between atoms: _502  and  _504
REMARK  208  A    between atoms: _504  and  _505
REMARK  209  A    between atoms: _504  and  _507
REMARK  210  A    between atoms: _507  and  _508
REMARK  211  A    between atoms: _513  and  _515
REMARK  212  A    between atoms: _515  and  _516
REMARK  213  A    between atoms: _515  and  _518
REMARK  214  A    between atoms: _518  and  _519
REMARK  215  A    between atoms: _519  and  _520
REMARK  216  A    between atoms: _523  and  _525
REMARK  217  A    between atoms: _525  and  _526
REMARK  218  A    between atoms: _525  and  _528
REMARK  219  A    between atoms: _528  and  _529
REMARK  220  A    between atoms: _534  and  _536
REMARK  221  A    between atoms: _536  and  _537
REMARK  222  A    between atoms: _536  and  _539
REMARK  223  A    between atoms: _539  and  _540
REMARK  224  A    between atoms: _540  and  _541
REMARK  225  A    between atoms: _543  and  _545
REMARK  226  A    between atoms: _545  and  _546
REMARK  227  A    between atoms: _545  and  _548
REMARK  228  A    between atoms: _548  and  _549
REMARK  229  A    between atoms: _549  and  _550
REMARK  230  A    between atoms: _550  and  _551
REMARK  231  A    between atoms: _560  and  _562
REMARK  232  A    between atoms: _562  and  _563
REMARK  233  A    between atoms: _562  and  _565
REMARK  234  A    between atoms: _565  and  _566
REMARK  235  A    between atoms: _569  and  _571
REMARK  236  A    between atoms: _571  and  _572
REMARK  237  A    between atoms: _575  and  _577
REMARK  238  A    between atoms: _577  and  _578
REMARK  239  A    between atoms: _577  and  _580
REMARK  240  A    between atoms: _580  and  _581
REMARK  241  A    between atoms: _587  and  _589
REMARK  242  A    between atoms: _589  and  _590
REMARK  243  A    between atoms: _589  and  _592
REMARK  244  A    between atoms: _592  and  _593
REMARK  245  A    between atoms: _593  and  _594
REMARK  246  A    between atoms: _597  and  _599
REMARK  247  A    between atoms: _599  and  _600
REMARK  248  A    between atoms: _599  and  _602
REMARK  249  A    between atoms: _602  and  _603
REMARK  250  A    between atoms: _605  and  _607
REMARK  251  A    between atoms: _607  and  _608
REMARK  252  A    between atoms: _607  and  _610
REMARK  253  A    between atoms: _610  and  _611
REMARK  254  A    between atoms: _621  and  _623
REMARK  255  A    between atoms: _623  and  _624
REMARK  256  A    between atoms: _623  and  _626
REMARK  257  A    between atoms: _626  and  _627
REMARK  258  A    between atoms: _629  and  _631
REMARK  259  A    between atoms: _631  and  _632
REMARK  260  A    between atoms: _631  and  _634
REMARK  261  A    between atoms: _637  and  _639
REMARK  262  A    between atoms: _639  and  _640
REMARK  263  A    between atoms: _639  and  _642
REMARK  264  A    between atoms: _642  and  _643
REMARK  265  A    between atoms: _646  and  _648
REMARK  266  A    between atoms: _648  and  _649
REMARK  267  A    between atoms: _648  and  _651
REMARK  268  A    between atoms: _651  and  _652
REMARK                            x       y       z     vdW  Elec       q    Type
REMARK                         _______ _______ _______ _____ _____    ______ ____
ROOT
ATOM      1  C   LEU A   1       0.719  -2.163  13.941  0.00  0.00    +0.238 C 
ATOM      2  O   LEU A   1       1.689  -2.549  14.597  0.00  0.00    -0.274 OA
ATOM      3  N   ASN A   2       0.680  -0.976  13.343  0.00  0.00    -0.298 N 
ATOM      4  H   ASN A   2      -0.138  -0.721  12.753  0.00  0.00    +0.150 HD
ENDROOT
BRANCH   1   5
ATOM      5  CA  LEU A   1      -0.520  -3.037  13.809  0.00  0.00    +0.145 C 
BRANCH   5   6
ATOM      6  N   LEU A   1      -1.717  -2.215  13.698  0.00  0.00    -0.238 NA
ATOM      7  H   LEU A   1      -2.271  -2.234  12.818  0.00  0.00    +0.142 HD
ENDBRANCH   5   6
BRANCH   5   8
ATOM      8  CB  LEU A   1      -0.386  -3.992  12.614  0.00  0.00    +0.026 C 
BRANCH   8   9
ATOM      9  CG  LEU A   1      -1.462  -5.090  12.587  0.00  0.00    +0.002 C 
ATOM     10  CD2 LEU A   1      -1.291  -6.044  13.750  0.00  0.00    +0.000 C 
ATOM     11  CD1 LEU A   1      -1.398  -5.850  11.270  0.00  0.00    +0.000 C 
ENDBRANCH   8   9
ENDBRANCH   5   8
ENDBRANCH   1   5
BRANCH   3  12
ATOM     12  CA  ASN A   2       1.778  -0.030  13.510  0.00  0.00    +0.146 C 
BRANCH  12  13
ATOM     13  C   ASN A   2       1.796   0.658  14.862  0.00  0.00    +0.227 C 
ATOM     14  O   ASN A   2       2.842   1.072  15.339  0.00  0.00    -0.286 OA
ENDBRANCH  12  13
BRANCH  12  15
ATOM     15  CB  ASN A   2       1.840   0.977  12.366  0.00  0.00    +0.112 C 
BRANCH  15  16
ATOM     16  CG  ASN A   2       2.585   0.437  11.175  0.00  0.00    +0.222 C 
ATOM     17  OD1 ASN A   2       3.811   0.498  11.117  0.00  0.00    -0.275 OA
ATOM     18  ND2 ASN A   2       1.850  -0.140  10.228  0.00  0.00    -0.329 N 
ATOM     19 HD21 ASN A   2       0.814  -0.169  10.319  0.00  0.00    +0.145 HD
ATOM     20 HD22 ASN A   2       2.311  -0.562   9.397  0.00  0.00    +0.145 HD
ENDBRANCH  15  16
ENDBRANCH  12  15
ENDBRANCH   3  12
TORSDOF 8
REMARK  Name = ../refined-set-2016/3f8c/3f8c_pocket.pdb
REMARK  268 active torsions:
REMARK  status: ('A' for Active; 'I' for Inactive)
REMARK    1  A    between atoms: _1  and  _5
REMARK    2  A    between atoms: _5  and  _6
REMARK    3  A    between atoms: _5  and  _8
REMARK    4  A    between atoms: _8  and  _9
REMARK    5  A    between atoms: _9  and  _10
REMARK    6  A    between atoms: _14  and  _15
REMARK    7  A    between atoms: _20  and  _22
REMARK    8  A    between atoms: _22  and  _23
REMARK    9  A    between atoms: _22  and  _25
REMARK   10  A    between atoms: _25  and  _26
REMARK   11  A    between atoms: _26  and  _27
REMARK   12  A    between atoms: _29  and  _31
REMARK   13  A    between atoms: _31  and  _32
REMARK   14  A    between atoms: _31  and  _34
REMARK   15  A    between atoms: _34  and  _35
REMARK   16  A    between atoms: _35  and  _36
REMARK   17  A    between atoms: _36  and  _37
REMARK   18  A    between atoms: _46  and  _48
REMARK   19  A    between atoms: _48  and  _49
REMARK   20  A    between atoms: _52  and  _54
REMARK   21  A    between atoms: _54  and  _55
REMARK   22  A    between atoms: _54  and  _57
REMARK   23  A    between atoms: _57  and  _58
REMARK   24  A    between atoms: _58  and  _59
REMARK   25  A    between atoms: _64  and  _66
REMARK   26  A    between atoms: _66  and  _67
REMARK   27  A    between atoms: _66  and  _69
REMARK   28  A    between atoms: _69  and  _70
REMARK   29  A    between atoms: _73  and  _75
REMARK   30  A    between atoms: _75  and  _76
REMARK   31  A    between atoms: _75  and  _78
REMARK   32  A    between atoms: _78  and  _79
REMARK   33  A    between atoms: _84  and  _86
REMARK   34  A    between atoms: _86  and  _87
REMARK   35  A    between atoms: _86  and  _89
REMARK   36  A    between atoms: _92  and  _94
REMARK   37  A    between atoms: _94  and  _95
REMARK   38  A    between atoms: _94  and  _97
REMARK   39  A    between atoms: _97  and  _98
REMARK   40  A    between atoms: _101  and  _103
REMARK   41  A    between atoms: _103  and  _104
REMARK   42  A    between atoms: _103  and  _106
REMARK   43  A    between atoms: _106  and  _107
REMARK   44  A    between atoms: _110  and  _112
REMARK   45  A    between atoms: _112  and  _113
REMARK   46  A    between atoms: _112  and  _115
REMARK   47  A    between atoms: _115  and  _116
REMARK   48  A    between atoms: _121  and  _123
REMARK   49  A    between atoms: _123  and  _124
REMARK   50  A    between atoms: _123  and  _126
REMARK   51  A    between atoms: _126  and  _127
REMARK   52  A    between atoms: _127  and  _128
REMARK   53  A    between atoms: _128  and  _129
REMARK   54  A    between atoms: _129  and  _130
REMARK   55  A    between atoms: _134  and  _136
REMARK   56  A    between atoms: _136  and  _137
REMARK   57  A    between atoms: _136  and  _139
REMARK   58  A    between atoms: _139  and  _140
REMARK   59  A    between atoms: _140  and  _141
REMARK   60  A    between atoms: _141  and  _142
REMARK   61  A    between atoms: _151  and  _153
REMARK   62  A    between atoms: _153  and  _154
REMARK   63  A    between atoms: _153  and  _156
REMARK   64  A    between atoms: _156  and  _157
REMARK   65  A    between atoms: _160  and  _162
REMARK   66  A    between atoms: _162  and  _163
REMARK   67  A    between atoms: _162  and  _165
REMARK   68  A    between atoms: _165  and  _166
REMARK   69  A    between atoms: _169  and  _171
REMARK   70  A    between atoms: _171  and  _172
REMARK   71  A    between atoms: _171  and  _174
REMARK   72  A    between atoms: _174  and  _175
REMARK   73  A    between atoms: _178  and  _180
REMARK   74  A    between atoms: _180  and  _181
REMARK   75  A    between atoms: _180  and  _183
REMARK   76  A    between atoms: _183  and  _184
REMARK   77  A    between atoms: _187  and  _189
REMARK   78  A    between atoms: _189  and  _190
REMARK   79  A    between atoms: _189  and  _192
REMARK   80  A    between atoms: _192  and  _193
REMARK   81  A    between atoms: _196  and  _198
REMARK   82  A    between atoms: _198  and  _199
REMARK   83  A    between atoms: _201  and  _203
REMARK   84  A    between atoms: _203  and  _204
REMARK   85  A    between atoms: _203  and  _206
REMARK   86  A    between atoms: _206  and  _207
REMARK   87  A    between atoms: _212  and  _214
REMARK   88  A    between atoms: _214  and  _215
REMARK   89  A    between atoms: _214  and  _217
REMARK   90  A    between atoms: _217  and  _218
REMARK   91  A    between atoms: _218  and  _219
REMARK   92  A    between atoms: _222  and  _224
REMARK   93  A    between atoms: _224  and  _225
REMARK   94  A    between atoms: _224  and  _227
REMARK   95  A    between atoms: _227  and  _228
REMARK   96  A    between atoms: _233  and  _235
REMARK   97  A    between atoms: _235  and  _236
REMARK   98  A    between atoms: _235  and  _238
REMARK   99  A    between atoms: _238  and  _239
REMARK  100  A    between atoms: _239  and  _240
REMARK  101  A    between atoms: _242  and  _244
REMARK  102  A    between atoms: _244  and  _245
REMARK  103  A    between atoms: _244  and  _247
REMARK  104  A    between atoms: _247  and  _248
REMARK  105  A    between atoms: _248  and  _249
REMARK  106  A    between atoms: _249  and  _250
REMARK  107  A    between atoms: _259  and  _261
REMARK  108  A    between atoms: _261  and  _262
REMARK  109  A    between atoms: _261  and  _264
REMARK  110  A    between atoms: _264  and  _265
REMARK  111  A    between atoms: _268  and  _270
REMARK  112  A    between atoms: _270  and  _271
REMARK  113  A    between atoms: _274  and  _276
REMARK  114  A    between atoms: _276  and  _277
REMARK  115  A    between atoms: _276  and  _279
REMARK  116  A    between atoms: _279  and  _280
REMARK  117  A    between atoms: _286  and  _288
REMARK  118  A    between atoms: _288  and  _289
REMARK  119  A    between atoms: _288  and  _291
REMARK  120  A    between atoms: _291  and  _292
REMARK  121  A    between atoms: _292  and  _293
REMARK  122  A    between atoms: _296  and  _298
REMARK  123  A    between atoms: _298  and  _299
REMARK  124  A    between atoms: _298  and  _301
REMARK  125  A    between atoms: _301  and  _302
REMARK  126  A    between atoms: _304  and  _306
REMARK  127  A    between atoms: _306  and  _307
REMARK  128  A    between atoms: _306  and  _309
REMARK  129  A    between atoms: _309  and  _310
REMARK  130  A    between atoms: _320  and  _322
REMARK  131  A    between atoms: _322  and  _323
REMARK  132  A    between atoms: _322  and  _325
REMARK  133  A    between atoms: _325  and  _326
REMARK  134  A    between atoms: _328  and  _330
REMARK  135  A    between atoms: _330  and  _331
REMARK  136  A    between atoms: _330  and  _333
REMARK  137  A    between atoms: _336  and  _338
REMARK  138  A    between atoms: _338  and  _339
REMARK  139  A    between atoms: _338  and  _341
REMARK  140  A    between atoms: _341  and  _342
REMARK  141  A    between atoms: _345  and  _347
REMARK  142  A    between atoms: _347  and  _348
REMARK  143  A    between atoms: _347  and  _350
REMARK  144  A    between atoms: _350  and  _351
REMARK  145  A    between atoms: _354  and  _358
REMARK  146  A    between atoms: _358  and  _359
REMARK  147  A    between atoms: _358  and  _361
REMARK  148  A    between atoms: _361  and  _362
REMARK  149  A    between atoms: _362  and  _363
REMARK  150  A    between atoms: _367  and  _368
REMARK  151  A    between atoms: _373  and  _375
REMARK  152  A    between atoms: _375  and  _376
REMARK  153  A    between atoms: _375  and  _378
REMARK  154  A    between atoms: _378  and  _379
REMARK  155  A    between atoms: _379  and  _380
REMARK  156  A    between atoms: _382  and  _384
REMARK  157  A    between atoms: _384  and  _385
REMARK  158  A    between atoms: _388  and  _390
REMARK  159  A    between atoms: _390  and  _391
REMARK  160  A    between atoms: _390  and  _393
REMARK  161  A    between atoms: _393  and  _394
REMARK  162  A    between atoms: _394  and  _395
REMARK  163  A    between atoms: _400  and  _402
REMARK  164  A    between atoms: _402  and  _403
REMARK  165  A    between atoms: _402  and  _405
REMARK  166  A    between atoms: _405  and  _406
REMARK  167  A    between atoms: _411  and  _413
REMARK  168  A    between atoms: _413  and  _414
REMARK  169  A    between atoms: _413  and  _416
REMARK  170  A    between atoms: _419  and  _421
REMARK  171  A    between atoms: _421  and  _422
REMARK  172  A    between atoms: _421  and  _424
REMARK  173  A    between atoms: _424  and  _425
REMARK  174  A    between atoms: _428  and  _430
REMARK  175  A    between atoms: _430  and  _431
REMARK  176  A    between atoms: _430  and  _433
REMARK  177  A    between atoms: _433  and  _434
REMARK  178  A    between atoms: _437  and  _439
REMARK  179  A    between atoms: _439  and  _440
REMARK  180  A    between atoms: _439  and  _442
REMARK  181  A    between atoms: _442  and  _443
REMARK  182  A    between atoms: _448  and  _450
REMARK  183  A    between atoms: _450  and  _451
REMARK  184  A    between atoms: _450  and  _453
REMARK  185  A    between atoms: _453  and  _454
REMARK  186  A    between atoms: _454  and  _455
REMARK  187  A    between atoms: _455  and  _456
REMARK  188  A    between atoms: _456  and  _457
REMARK  189  A    between atoms: _461  and  _463
REMARK  190  A    between atoms: _463  and  _464
REMARK  191  A    between atoms: _463  and  _466
REMARK  192  A    between atoms: _466  and  _467
REMARK  193  A    between atoms: _470  and  _472
REMARK  194  A    between atoms: _472  and  _473
REMARK  195  A    between atoms: _472  and  _475
REMARK  196  A    between atoms: _475  and  _476
REMARK  197  A    between atoms: _479  and  _481
REMARK  198  A    between atoms: _481  and  _482
REMARK  199  A    between atoms: _481  and  _484
REMARK  200  A    between atoms: _484  and  _485
REMARK  201  A    between atoms: _488  and  _490
REMARK  202  A    between atoms: _490  and  _491
REMARK  203  A    between atoms: _490  and  _493
REMARK  204  A    between atoms: _493  and  _494
REMARK  205  A    between atoms: _497  and  _499
REMARK  206  A    between atoms: _499  and  _500
REMARK  207  A    between atoms: _502  and  _504
REMARK  208  A    between atoms: _504  and  _505
REMARK  209  A    between atoms: _504  and  _507
REMARK  210  A    between atoms: _507  and  _508
REMARK  211  A    between atoms: _513  and  _515
REMARK  212  A    between atoms: _515  and  _516
REMARK  213  A    between atoms: _515  and  _518
REMARK  214  A    between atoms: _518  and  _519
REMARK  215  A    between atoms: _519  and  _520
REMARK  216  A    between atoms: _523  and  _525
REMARK  217  A    between atoms: _525  and  _526
REMARK  218  A    between atoms: _525  and  _528
REMARK  219  A    between atoms: _528  and  _529
REMARK  220  A    between atoms: _534  and  _536
REMARK  221  A    between atoms: _536  and  _537
REMARK  222  A    between atoms: _536  and  _539
REMARK  223  A    between atoms: _539  and  _540
REMARK  224  A    between atoms: _540  and  _541
REMARK  225  A    between atoms: _543  and  _545
REMARK  226  A    between atoms: _545  and  _546
REMARK  227  A    between atoms: _545  and  _548
REMARK  228  A    between atoms: _548  and  _549
REMARK  229  A    between atoms: _549  and  _550
REMARK  230  A    between atoms: _550  and  _551
REMARK  231  A    between atoms: _560  and  _562
REMARK  232  A    between atoms: _562  and  _563
REMARK  233  A    between atoms: _562  and  _565
REMARK  234  A    between atoms: _565  and  _566
REMARK  235  A    between atoms: _569  and  _571
REMARK  236  A    between atoms: _571  and  _572
REMARK  237  A    between atoms: _575  and  _577
REMARK  238  A    between atoms: _577  and  _578
REMARK  239  A    between atoms: _577  and  _580
REMARK  240  A    between atoms: _580  and  _581
REMARK  241  A    between atoms: _587  and  _589
REMARK  242  A    between atoms: _589  and  _590
REMARK  243  A    between atoms: _589  and  _592
REMARK  244  A    between atoms: _592  and  _593
REMARK  245  A    between atoms: _593  and  _594
REMARK  246  A    between atoms: _597  and  _599
REMARK  247  A    between atoms: _599  and  _600
REMARK  248  A    between atoms: _599  and  _602
REMARK  249  A    between atoms: _602  and  _603
REMARK  250  A    between atoms: _605  and  _607
REMARK  251  A    between atoms: _607  and  _608
REMARK  252  A    between atoms: _607  and  _610
REMARK  253  A    between atoms: _610  and  _611
REMARK  254  A    between atoms: _621  and  _623
REMARK  255  A    between atoms: _623  and  _624
REMARK  256  A    between atoms: _623  and  _626
REMARK  257  A    between atoms: _626  and  _627
REMARK  258  A    between atoms: _629  and  _631
REMARK  259  A    between atoms: _631  and  _632
REMARK  260  A    between atoms: _631  and  _634
REMARK  261  A    between atoms: _637  and  _639
REMARK  262  A    between atoms: _639  and  _640
REMARK  263  A    between atoms: _639  and  _642
REMARK  264  A    between atoms: _642  and  _643
REMARK  265  A    between atoms: _646  and  _648
REMARK  266  A    between atoms: _648  and  _649
REMARK  267  A    between atoms: _648  and  _651
REMARK  268  A    between atoms: _651  and  _652
REMARK                            x       y       z     vdW  Elec       q    Type
REMARK                         _______ _______ _______ _____ _____    ______ ____
ROOT
ATOM      1  CG  LYS A   1       6.404  -1.706  14.322  0.00  0.00    -0.000 C 
ENDROOT
BRANCH   1   2
ATOM      2  CB  LYS A   1       5.017  -1.749  14.835  0.00  0.00    +0.025 C 
BRANCH   2   3
ATOM      3  CA  LYS A   1       4.908  -2.052  16.328  0.00  0.00    +0.133 C 
BRANCH   3   4
ATOM      4  N   LYS A   1       3.528  -2.011  16.736  0.00  0.00    -0.239 NA
ATOM      5  H   LYS A   1       2.801  -1.759  16.037  0.00  0.00    +0.142 HD
ENDBRANCH   3   4
BRANCH   3   6
ATOM      6  C   LYS A   1       5.733  -1.048  17.143  0.00  0.00    +0.224 C 
ATOM      7  O   LYS A   1       6.878  -1.315  17.483  0.00  0.00    -0.287 OA
ENDBRANCH   3   6
ENDBRANCH   2   3
ENDBRANCH   1   2
BRANCH   1   8
ATOM      8  CD  LYS A   1       6.412  -1.550  12.824  0.00  0.00    -0.024 C 
BRANCH   8   9
ATOM      9  CE  LYS A   1       7.616  -2.225  12.223  0.00  0.00    -0.086 C 
BRANCH   9  10
ATOM     10  NZ  LYS A   1       7.470  -2.373  10.758  0.00  0.00    +0.380 N 
ATOM     11  HZ1 LYS A   1       6.628  -2.948  10.551  0.00  0.00    -0.089 HD
ATOM     12  HZ2 LYS A   1       8.315  -2.841  10.372  0.00  0.00    -0.089 HD
ATOM     13  HZ3 LYS A   1       7.365  -1.433  10.325  0.00  0.00    -0.089 HD
ENDBRANCH   9  10
ENDBRANCH   8   9
ENDBRANCH   1   8
TORSDOF 7
REMARK  Name = ../refined-set-2016/3f8c/3f8c_pocket.pdb
REMARK  268 active torsions:
REMARK  status: ('A' for Active; 'I' for Inactive)
REMARK    1  A    between atoms: _1  and  _5
REMARK    2  A    between atoms: _5  and  _6
REMARK    3  A    between atoms: _5  and  _8
REMARK    4  A    between atoms: _8  and  _9
REMARK    5  A    between atoms: _9  and  _10
REMARK    6  A    between atoms: _14  and  _15
REMARK    7  A    between atoms: _20  and  _22
REMARK    8  A    between atoms: _22  and  _23
REMARK    9  A    between atoms: _22  and  _25
REMARK   10  A    between atoms: _25  and  _26
REMARK   11  A    between atoms: _26  and  _27
REMARK   12  A    between atoms: _29  and  _31
REMARK   13  A    between atoms: _31  and  _32
REMARK   14  A    between atoms: _31  and  _34
REMARK   15  A    between atoms: _34  and  _35
REMARK   16  A    between atoms: _35  and  _36
REMARK   17  A    between atoms: _36  and  _37
REMARK   18  A    between atoms: _46  and  _48
REMARK   19  A    between atoms: _48  and  _49
REMARK   20  A    between atoms: _52  and  _54
REMARK   21  A    between atoms: _54  and  _55
REMARK   22  A    between atoms: _54  and  _57
REMARK   23  A    between atoms: _57  and  _58
REMARK   24  A    between atoms: _58  and  _59
REMARK   25  A    between atoms: _64  and  _66
REMARK   26  A    between atoms: _66  and  _67
REMARK   27  A    between atoms: _66  and  _69
REMARK   28  A    between atoms: _69  and  _70
REMARK   29  A    between atoms: _73  and  _75
REMARK   30  A    between atoms: _75  and  _76
REMARK   31  A    between atoms: _75  and  _78
REMARK   32  A    between atoms: _78  and  _79
REMARK   33  A    between atoms: _84  and  _86
REMARK   34  A    between atoms: _86  and  _87
REMARK   35  A    between atoms: _86  and  _89
REMARK   36  A    between atoms: _92  and  _94
REMARK   37  A    between atoms: _94  and  _95
REMARK   38  A    between atoms: _94  and  _97
REMARK   39  A    between atoms: _97  and  _98
REMARK   40  A    between atoms: _101  and  _103
REMARK   41  A    between atoms: _103  and  _104
REMARK   42  A    between atoms: _103  and  _106
REMARK   43  A    between atoms: _106  and  _107
REMARK   44  A    between atoms: _110  and  _112
REMARK   45  A    between atoms: _112  and  _113
REMARK   46  A    between atoms: _112  and  _115
REMARK   47  A    between atoms: _115  and  _116
REMARK   48  A    between atoms: _121  and  _123
REMARK   49  A    between atoms: _123  and  _124
REMARK   50  A    between atoms: _123  and  _126
REMARK   51  A    between atoms: _126  and  _127
REMARK   52  A    between atoms: _127  and  _128
REMARK   53  A    between atoms: _128  and  _129
REMARK   54  A    between atoms: _129  and  _130
REMARK   55  A    between atoms: _134  and  _136
REMARK   56  A    between atoms: _136  and  _137
REMARK   57  A    between atoms: _136  and  _139
REMARK   58  A    between atoms: _139  and  _140
REMARK   59  A    between atoms: _140  and  _141
REMARK   60  A    between atoms: _141  and  _142
REMARK   61  A    between atoms: _151  and  _153
REMARK   62  A    between atoms: _153  and  _154
REMARK   63  A    between atoms: _153  and  _156
REMARK   64  A    between atoms: _156  and  _157
REMARK   65  A    between atoms: _160  and  _162
REMARK   66  A    between atoms: _162  and  _163
REMARK   67  A    between atoms: _162  and  _165
REMARK   68  A    between atoms: _165  and  _166
REMARK   69  A    between atoms: _169  and  _171
REMARK   70  A    between atoms: _171  and  _172
REMARK   71  A    between atoms: _171  and  _174
REMARK   72  A    between atoms: _174  and  _175
REMARK   73  A    between atoms: _178  and  _180
REMARK   74  A    between atoms: _180  and  _181
REMARK   75  A    between atoms: _180  and  _183
REMARK   76  A    between atoms: _183  and  _184
REMARK   77  A    between atoms: _187  and  _189
REMARK   78  A    between atoms: _189  and  _190
REMARK   79  A    between atoms: _189  and  _192
REMARK   80  A    between atoms: _192  and  _193
REMARK   81  A    between atoms: _196  and  _198
REMARK   82  A    between atoms: _198  and  _199
REMARK   83  A    between atoms: _201  and  _203
REMARK   84  A    between atoms: _203  and  _204
REMARK   85  A    between atoms: _203  and  _206
REMARK   86  A    between atoms: _206  and  _207
REMARK   87  A    between atoms: _212  and  _214
REMARK   88  A    between atoms: _214  and  _215
REMARK   89  A    between atoms: _214  and  _217
REMARK   90  A    between atoms: _217  and  _218
REMARK   91  A    between atoms: _218  and  _219
REMARK   92  A    between atoms: _222  and  _224
REMARK   93  A    between atoms: _224  and  _225
REMARK   94  A    between atoms: _224  and  _227
REMARK   95  A    between atoms: _227  and  _228
REMARK   96  A    between atoms: _233  and  _235
REMARK   97  A    between atoms: _235  and  _236
REMARK   98  A    between atoms: _235  and  _238
REMARK   99  A    between atoms: _238  and  _239
REMARK  100  A    between atoms: _239  and  _240
REMARK  101  A    between atoms: _242  and  _244
REMARK  102  A    between atoms: _244  and  _245
REMARK  103  A    between atoms: _244  and  _247
REMARK  104  A    between atoms: _247  and  _248
REMARK  105  A    between atoms: _248  and  _249
REMARK  106  A    between atoms: _249  and  _250
REMARK  107  A    between atoms: _259  and  _261
REMARK  108  A    between atoms: _261  and  _262
REMARK  109  A    between atoms: _261  and  _264
REMARK  110  A    between atoms: _264  and  _265
REMARK  111  A    between atoms: _268  and  _270
REMARK  112  A    between atoms: _270  and  _271
REMARK  113  A    between atoms: _274  and  _276
REMARK  114  A    between atoms: _276  and  _277
REMARK  115  A    between atoms: _276  and  _279
REMARK  116  A    between atoms: _279  and  _280
REMARK  117  A    between atoms: _286  and  _288
REMARK  118  A    between atoms: _288  and  _289
REMARK  119  A    between atoms: _288  and  _291
REMARK  120  A    between atoms: _291  and  _292
REMARK  121  A    between atoms: _292  and  _293
REMARK  122  A    between atoms: _296  and  _298
REMARK  123  A    between atoms: _298  and  _299
REMARK  124  A    between atoms: _298  and  _301
REMARK  125  A    between atoms: _301  and  _302
REMARK  126  A    between atoms: _304  and  _306
REMARK  127  A    between atoms: _306  and  _307
REMARK  128  A    between atoms: _306  and  _309
REMARK  129  A    between atoms: _309  and  _310
REMARK  130  A    between atoms: _320  and  _322
REMARK  131  A    between atoms: _322  and  _323
REMARK  132  A    between atoms: _322  and  _325
REMARK  133  A    between atoms: _325  and  _326
REMARK  134  A    between atoms: _328  and  _330
REMARK  135  A    between atoms: _330  and  _331
REMARK  136  A    between atoms: _330  and  _333
REMARK  137  A    between atoms: _336  and  _338
REMARK  138  A    between atoms: _338  and  _339
REMARK  139  A    between atoms: _338  and  _341
REMARK  140  A    between atoms: _341  and  _342
REMARK  141  A    between atoms: _345  and  _347
REMARK  142  A    between atoms: _347  and  _348
REMARK  143  A    between atoms: _347  and  _350
REMARK  144  A    between atoms: _350  and  _351
REMARK  145  A    between atoms: _354  and  _358
REMARK  146  A    between atoms: _358  and  _359
REMARK  147  A    between atoms: _358  and  _361
REMARK  148  A    between atoms: _361  and  _362
REMARK  149  A    between atoms: _362  and  _363
REMARK  150  A    between atoms: _367  and  _368
REMARK  151  A    between atoms: _373  and  _375
REMARK  152  A    between atoms: _375  and  _376
REMARK  153  A    between atoms: _375  and  _378
REMARK  154  A    between atoms: _378  and  _379
REMARK  155  A    between atoms: _379  and  _380
REMARK  156  A    between atoms: _382  and  _384
REMARK  157  A    between atoms: _384  and  _385
REMARK  158  A    between atoms: _388  and  _390
REMARK  159  A    between atoms: _390  and  _391
REMARK  160  A    between atoms: _390  and  _393
REMARK  161  A    between atoms: _393  and  _394
REMARK  162  A    between atoms: _394  and  _395
REMARK  163  A    between atoms: _400  and  _402
REMARK  164  A    between atoms: _402  and  _403
REMARK  165  A    between atoms: _402  and  _405
REMARK  166  A    between atoms: _405  and  _406
REMARK  167  A    between atoms: _411  and  _413
REMARK  168  A    between atoms: _413  and  _414
REMARK  169  A    between atoms: _413  and  _416
REMARK  170  A    between atoms: _419  and  _421
REMARK  171  A    between atoms: _421  and  _422
REMARK  172  A    between atoms: _421  and  _424
REMARK  173  A    between atoms: _424  and  _425
REMARK  174  A    between atoms: _428  and  _430
REMARK  175  A    between atoms: _430  and  _431
REMARK  176  A    between atoms: _430  and  _433
REMARK  177  A    between atoms: _433  and  _434
REMARK  178  A    between atoms: _437  and  _439
REMARK  179  A    between atoms: _439  and  _440
REMARK  180  A    between atoms: _439  and  _442
REMARK  181  A    between atoms: _442  and  _443
REMARK  182  A    between atoms: _448  and  _450
REMARK  183  A    between atoms: _450  and  _451
REMARK  184  A    between atoms: _450  and  _453
REMARK  185  A    between atoms: _453  and  _454
REMARK  186  A    between atoms: _454  and  _455
REMARK  187  A    between atoms: _455  and  _456
REMARK  188  A    between atoms: _456  and  _457
REMARK  189  A    between atoms: _461  and  _463
REMARK  190  A    between atoms: _463  and  _464
REMARK  191  A    between atoms: _463  and  _466
REMARK  192  A    between atoms: _466  and  _467
REMARK  193  A    between atoms: _470  and  _472
REMARK  194  A    between atoms: _472  and  _473
REMARK  195  A    between atoms: _472  and  _475
REMARK  196  A    between atoms: _475  and  _476
REMARK  197  A    between atoms: _479  and  _481
REMARK  198  A    between atoms: _481  and  _482
REMARK  199  A    between atoms: _481  and  _484
REMARK  200  A    between atoms: _484  and  _485
REMARK  201  A    between atoms: _488  and  _490
REMARK  202  A    between atoms: _490  and  _491
REMARK  203  A    between atoms: _490  and  _493
REMARK  204  A    between atoms: _493  and  _494
REMARK  205  A    between atoms: _497  and  _499
REMARK  206  A    between atoms: _499  and  _500
REMARK  207  A    between atoms: _502  and  _504
REMARK  208  A    between atoms: _504  and  _505
REMARK  209  A    between atoms: _504  and  _507
REMARK  210  A    between atoms: _507  and  _508
REMARK  211  A    between atoms: _513  and  _515
REMARK  212  A    between atoms: _515  and  _516
REMARK  213  A    between atoms: _515  and  _518
REMARK  214  A    between atoms: _518  and  _519
REMARK  215  A    between atoms: _519  and  _520
REMARK  216  A    between atoms: _523  and  _525
REMARK  217  A    between atoms: _525  and  _526
REMARK  218  A    between atoms: _525  and  _528
REMARK  219  A    between atoms: _528  and  _529
REMARK  220  A    between atoms: _534  and  _536
REMARK  221  A    between atoms: _536  and  _537
REMARK  222  A    between atoms: _536  and  _539
REMARK  223  A    between atoms: _539  and  _540
REMARK  224  A    between atoms: _540  and  _541
REMARK  225  A    between atoms: _543  and  _545
REMARK  226  A    between atoms: _545  and  _546
REMARK  227  A    between atoms: _545  and  _548
REMARK  228  A    between atoms: _548  and  _549
REMARK  229  A    between atoms: _549  and  _550
REMARK  230  A    between atoms: _550  and  _551
REMARK  231  A    between atoms: _560  and  _562
REMARK  232  A    between atoms: _562  and  _563
REMARK  233  A    between atoms: _562  and  _565
REMARK  234  A    between atoms: _565  and  _566
REMARK  235  A    between atoms: _569  and  _571
REMARK  236  A    between atoms: _571  and  _572
REMARK  237  A    between atoms: _575  and  _577
REMARK  238  A    between atoms: _577  and  _578
REMARK  239  A    between atoms: _577  and  _580
REMARK  240  A    between atoms: _580  and  _581
REMARK  241  A    between atoms: _587  and  _589
REMARK  242  A    between atoms: _589  and  _590
REMARK  243  A    between atoms: _589  and  _592
REMARK  244  A    between atoms: _592  and  _593
REMARK  245  A    between atoms: _593  and  _594
REMARK  246  A    between atoms: _597  and  _599
REMARK  247  A    between atoms: _599  and  _600
REMARK  248  A    between atoms: _599  and  _602
REMARK  249  A    between atoms: _602  and  _603
REMARK  250  A    between atoms: _605  and  _607
REMARK  251  A    between atoms: _607  and  _608
REMARK  252  A    between atoms: _607  and  _610
REMARK  253  A    between atoms: _610  and  _611
REMARK  254  A    between atoms: _621  and  _623
REMARK  255  A    between atoms: _623  and  _624
REMARK  256  A    between atoms: _623  and  _626
REMARK  257  A    between atoms: _626  and  _627
REMARK  258  A    between atoms: _629  and  _631
REMARK  259  A    between atoms: _631  and  _632
REMARK  260  A    between atoms: _631  and  _634
REMARK  261  A    between atoms: _637  and  _639
REMARK  262  A    between atoms: _639  and  _640
REMARK  263  A    between atoms: _639  and  _642
REMARK  264  A    between atoms: _642  and  _643
REMARK  265  A    between atoms: _646  and  _648
REMARK  266  A    between atoms: _648  and  _649
REMARK  267  A    between atoms: _648  and  _651
REMARK  268  A    between atoms: _651  and  _652
REMARK                            x       y       z     vdW  Elec       q    Type
REMARK                         _______ _______ _______ _____ _____    ______ ____
ROOT
ATOM      1  CA  LEU A   1      -5.692 -10.810  14.560  0.00  0.00    +0.133 C 
ENDROOT
BRANCH   1   2
ATOM      2  N   LEU A   1      -7.168 -10.890  14.706  0.00  0.00    -0.239 NA
ATOM      3  H   LEU A   1      -7.691 -10.072  15.079  0.00  0.00    +0.142 HD
ENDBRANCH   1   2
BRANCH   1   4
ATOM      4  C   LEU A   1      -5.030 -11.803  15.479  0.00  0.00    +0.224 C 
ATOM      5  O   LEU A   1      -4.018 -12.395  15.146  0.00  0.00    -0.287 OA
ENDBRANCH   1   4
BRANCH   1   6
ATOM      6  CB  LEU A   1      -5.187  -9.391  14.872  0.00  0.00    +0.025 C 
BRANCH   6   7
ATOM      7  CG  LEU A   1      -5.501  -8.348  13.816  0.00  0.00    +0.002 C 
ATOM      8  CD2 LEU A   1      -4.997  -6.993  14.282  0.00  0.00    +0.000 C 
ATOM      9  CD1 LEU A   1      -4.810  -8.764  12.497  0.00  0.00    +0.000 C 
ENDBRANCH   6   7
ENDBRANCH   1   6
TORSDOF 4
REMARK  Name = ../refined-set-2016/3f8c/3f8c_pocket.pdb
REMARK  268 active torsions:
REMARK  status: ('A' for Active; 'I' for Inactive)
REMARK    1  A    between atoms: _1  and  _5
REMARK    2  A    between atoms: _5  and  _6
REMARK    3  A    between atoms: _5  and  _8
REMARK    4  A    between atoms: _8  and  _9
REMARK    5  A    between atoms: _9  and  _10
REMARK    6  A    between atoms: _14  and  _15
REMARK    7  A    between atoms: _20  and  _22
REMARK    8  A    between atoms: _22  and  _23
REMARK    9  A    between atoms: _22  and  _25
REMARK   10  A    between atoms: _25  and  _26
REMARK   11  A    between atoms: _26  and  _27
REMARK   12  A    between atoms: _29  and  _31
REMARK   13  A    between atoms: _31  and  _32
REMARK   14  A    between atoms: _31  and  _34
REMARK   15  A    between atoms: _34  and  _35
REMARK   16  A    between atoms: _35  and  _36
REMARK   17  A    between atoms: _36  and  _37
REMARK   18  A    between atoms: _46  and  _48
REMARK   19  A    between atoms: _48  and  _49
REMARK   20  A    between atoms: _52  and  _54
REMARK   21  A    between atoms: _54  and  _55
REMARK   22  A    between atoms: _54  and  _57
REMARK   23  A    between atoms: _57  and  _58
REMARK   24  A    between atoms: _58  and  _59
REMARK   25  A    between atoms: _64  and  _66
REMARK   26  A    between atoms: _66  and  _67
REMARK   27  A    between atoms: _66  and  _69
REMARK   28  A    between atoms: _69  and  _70
REMARK   29  A    between atoms: _73  and  _75
REMARK   30  A    between atoms: _75  and  _76
REMARK   31  A    between atoms: _75  and  _78
REMARK   32  A    between atoms: _78  and  _79
REMARK   33  A    between atoms: _84  and  _86
REMARK   34  A    between atoms: _86  and  _87
REMARK   35  A    between atoms: _86  and  _89
REMARK   36  A    between atoms: _92  and  _94
REMARK   37  A    between atoms: _94  and  _95
REMARK   38  A    between atoms: _94  and  _97
REMARK   39  A    between atoms: _97  and  _98
REMARK   40  A    between atoms: _101  and  _103
REMARK   41  A    between atoms: _103  and  _104
REMARK   42  A    between atoms: _103  and  _106
REMARK   43  A    between atoms: _106  and  _107
REMARK   44  A    between atoms: _110  and  _112
REMARK   45  A    between atoms: _112  and  _113
REMARK   46  A    between atoms: _112  and  _115
REMARK   47  A    between atoms: _115  and  _116
REMARK   48  A    between atoms: _121  and  _123
REMARK   49  A    between atoms: _123  and  _124
REMARK   50  A    between atoms: _123  and  _126
REMARK   51  A    between atoms: _126  and  _127
REMARK   52  A    between atoms: _127  and  _128
REMARK   53  A    between atoms: _128  and  _129
REMARK   54  A    between atoms: _129  and  _130
REMARK   55  A    between atoms: _134  and  _136
REMARK   56  A    between atoms: _136  and  _137
REMARK   57  A    between atoms: _136  and  _139
REMARK   58  A    between atoms: _139  and  _140
REMARK   59  A    between atoms: _140  and  _141
REMARK   60  A    between atoms: _141  and  _142
REMARK   61  A    between atoms: _151  and  _153
REMARK   62  A    between atoms: _153  and  _154
REMARK   63  A    between atoms: _153  and  _156
REMARK   64  A    between atoms: _156  and  _157
REMARK   65  A    between atoms: _160  and  _162
REMARK   66  A    between atoms: _162  and  _163
REMARK   67  A    between atoms: _162  and  _165
REMARK   68  A    between atoms: _165  and  _166
REMARK   69  A    between atoms: _169  and  _171
REMARK   70  A    between atoms: _171  and  _172
REMARK   71  A    between atoms: _171  and  _174
REMARK   72  A    between atoms: _174  and  _175
REMARK   73  A    between atoms: _178  and  _180
REMARK   74  A    between atoms: _180  and  _181
REMARK   75  A    between atoms: _180  and  _183
REMARK   76  A    between atoms: _183  and  _184
REMARK   77  A    between atoms: _187  and  _189
REMARK   78  A    between atoms: _189  and  _190
REMARK   79  A    between atoms: _189  and  _192
REMARK   80  A    between atoms: _192  and  _193
REMARK   81  A    between atoms: _196  and  _198
REMARK   82  A    between atoms: _198  and  _199
REMARK   83  A    between atoms: _201  and  _203
REMARK   84  A    between atoms: _203  and  _204
REMARK   85  A    between atoms: _203  and  _206
REMARK   86  A    between atoms: _206  and  _207
REMARK   87  A    between atoms: _212  and  _214
REMARK   88  A    between atoms: _214  and  _215
REMARK   89  A    between atoms: _214  and  _217
REMARK   90  A    between atoms: _217  and  _218
REMARK   91  A    between atoms: _218  and  _219
REMARK   92  A    between atoms: _222  and  _224
REMARK   93  A    between atoms: _224  and  _225
REMARK   94  A    between atoms: _224  and  _227
REMARK   95  A    between atoms: _227  and  _228
REMARK   96  A    between atoms: _233  and  _235
REMARK   97  A    between atoms: _235  and  _236
REMARK   98  A    between atoms: _235  and  _238
REMARK   99  A    between atoms: _238  and  _239
REMARK  100  A    between atoms: _239  and  _240
REMARK  101  A    between atoms: _242  and  _244
REMARK  102  A    between atoms: _244  and  _245
REMARK  103  A    between atoms: _244  and  _247
REMARK  104  A    between atoms: _247  and  _248
REMARK  105  A    between atoms: _248  and  _249
REMARK  106  A    between atoms: _249  and  _250
REMARK  107  A    between atoms: _259  and  _261
REMARK  108  A    between atoms: _261  and  _262
REMARK  109  A    between atoms: _261  and  _264
REMARK  110  A    between atoms: _264  and  _265
REMARK  111  A    between atoms: _268  and  _270
REMARK  112  A    between atoms: _270  and  _271
REMARK  113  A    between atoms: _274  and  _276
REMARK  114  A    between atoms: _276  and  _277
REMARK  115  A    between atoms: _276  and  _279
REMARK  116  A    between atoms: _279  and  _280
REMARK  117  A    between atoms: _286  and  _288
REMARK  118  A    between atoms: _288  and  _289
REMARK  119  A    between atoms: _288  and  _291
REMARK  120  A    between atoms: _291  and  _292
REMARK  121  A    between atoms: _292  and  _293
REMARK  122  A    between atoms: _296  and  _298
REMARK  123  A    between atoms: _298  and  _299
REMARK  124  A    between atoms: _298  and  _301
REMARK  125  A    between atoms: _301  and  _302
REMARK  126  A    between atoms: _304  and  _306
REMARK  127  A    between atoms: _306  and  _307
REMARK  128  A    between atoms: _306  and  _309
REMARK  129  A    between atoms: _309  and  _310
REMARK  130  A    between atoms: _320  and  _322
REMARK  131  A    between atoms: _322  and  _323
REMARK  132  A    between atoms: _322  and  _325
REMARK  133  A    between atoms: _325  and  _326
REMARK  134  A    between atoms: _328  and  _330
REMARK  135  A    between atoms: _330  and  _331
REMARK  136  A    between atoms: _330  and  _333
REMARK  137  A    between atoms: _336  and  _338
REMARK  138  A    between atoms: _338  and  _339
REMARK  139  A    between atoms: _338  and  _341
REMARK  140  A    between atoms: _341  and  _342
REMARK  141  A    between atoms: _345  and  _347
REMARK  142  A    between atoms: _347  and  _348
REMARK  143  A    between atoms: _347  and  _350
REMARK  144  A    between atoms: _350  and  _351
REMARK  145  A    between atoms: _354  and  _358
REMARK  146  A    between atoms: _358  and  _359
REMARK  147  A    between atoms: _358  and  _361
REMARK  148  A    between atoms: _361  and  _362
REMARK  149  A    between atoms: _362  and  _363
REMARK  150  A    between atoms: _367  and  _368
REMARK  151  A    between atoms: _373  and  _375
REMARK  152  A    between atoms: _375  and  _376
REMARK  153  A    between atoms: _375  and  _378
REMARK  154  A    between atoms: _378  and  _379
REMARK  155  A    between atoms: _379  and  _380
REMARK  156  A    between atoms: _382  and  _384
REMARK  157  A    between atoms: _384  and  _385
REMARK  158  A    between atoms: _388  and  _390
REMARK  159  A    between atoms: _390  and  _391
REMARK  160  A    between atoms: _390  and  _393
REMARK  161  A    between atoms: _393  and  _394
REMARK  162  A    between atoms: _394  and  _395
REMARK  163  A    between atoms: _400  and  _402
REMARK  164  A    between atoms: _402  and  _403
REMARK  165  A    between atoms: _402  and  _405
REMARK  166  A    between atoms: _405  and  _406
REMARK  167  A    between atoms: _411  and  _413
REMARK  168  A    between atoms: _413  and  _414
REMARK  169  A    between atoms: _413  and  _416
REMARK  170  A    between atoms: _419  and  _421
REMARK  171  A    between atoms: _421  and  _422
REMARK  172  A    between atoms: _421  and  _424
REMARK  173  A    between atoms: _424  and  _425
REMARK  174  A    between atoms: _428  and  _430
REMARK  175  A    between atoms: _430  and  _431
REMARK  176  A    between atoms: _430  and  _433
REMARK  177  A    between atoms: _433  and  _434
REMARK  178  A    between atoms: _437  and  _439
REMARK  179  A    between atoms: _439  and  _440
REMARK  180  A    between atoms: _439  and  _442
REMARK  181  A    between atoms: _442  and  _443
REMARK  182  A    between atoms: _448  and  _450
REMARK  183  A    between atoms: _450  and  _451
REMARK  184  A    between atoms: _450  and  _453
REMARK  185  A    between atoms: _453  and  _454
REMARK  186  A    between atoms: _454  and  _455
REMARK  187  A    between atoms: _455  and  _456
REMARK  188  A    between atoms: _456  and  _457
REMARK  189  A    between atoms: _461  and  _463
REMARK  190  A    between atoms: _463  and  _464
REMARK  191  A    between atoms: _463  and  _466
REMARK  192  A    between atoms: _466  and  _467
REMARK  193  A    between atoms: _470  and  _472
REMARK  194  A    between atoms: _472  and  _473
REMARK  195  A    between atoms: _472  and  _475
REMARK  196  A    between atoms: _475  and  _476
REMARK  197  A    between atoms: _479  and  _481
REMARK  198  A    between atoms: _481  and  _482
REMARK  199  A    between atoms: _481  and  _484
REMARK  200  A    between atoms: _484  and  _485
REMARK  201  A    between atoms: _488  and  _490
REMARK  202  A    between atoms: _490  and  _491
REMARK  203  A    between atoms: _490  and  _493
REMARK  204  A    between atoms: _493  and  _494
REMARK  205  A    between atoms: _497  and  _499
REMARK  206  A    between atoms: _499  and  _500
REMARK  207  A    between atoms: _502  and  _504
REMARK  208  A    between atoms: _504  and  _505
REMARK  209  A    between atoms: _504  and  _507
REMARK  210  A    between atoms: _507  and  _508
REMARK  211  A    between atoms: _513  and  _515
REMARK  212  A    between atoms: _515  and  _516
REMARK  213  A    between atoms: _515  and  _518
REMARK  214  A    between atoms: _518  and  _519
REMARK  215  A    between atoms: _519  and  _520
REMARK  216  A    between atoms: _523  and  _525
REMARK  217  A    between atoms: _525  and  _526
REMARK  218  A    between atoms: _525  and  _528
REMARK  219  A    between atoms: _528  and  _529
REMARK  220  A    between atoms: _534  and  _536
REMARK  221  A    between atoms: _536  and  _537
REMARK  222  A    between atoms: _536  and  _539
REMARK  223  A    between atoms: _539  and  _540
REMARK  224  A    between atoms: _540  and  _541
REMARK  225  A    between atoms: _543  and  _545
REMARK  226  A    between atoms: _545  and  _546
REMARK  227  A    between atoms: _545  and  _548
REMARK  228  A    between atoms: _548  and  _549
REMARK  229  A    between atoms: _549  and  _550
REMARK  230  A    between atoms: _550  and  _551
REMARK  231  A    between atoms: _560  and  _562
REMARK  232  A    between atoms: _562  and  _563
REMARK  233  A    between atoms: _562  and  _565
REMARK  234  A    between atoms: _565  and  _566
REMARK  235  A    between atoms: _569  and  _571
REMARK  236  A    between atoms: _571  and  _572
REMARK  237  A    between atoms: _575  and  _577
REMARK  238  A    between atoms: _577  and  _578
REMARK  239  A    between atoms: _577  and  _580
REMARK  240  A    between atoms: _580  and  _581
REMARK  241  A    between atoms: _587  and  _589
REMARK  242  A    between atoms: _589  and  _590
REMARK  243  A    between atoms: _589  and  _592
REMARK  244  A    between atoms: _592  and  _593
REMARK  245  A    between atoms: _593  and  _594
REMARK  246  A    between atoms: _597  and  _599
REMARK  247  A    between atoms: _599  and  _600
REMARK  248  A    between atoms: _599  and  _602
REMARK  249  A    between atoms: _602  and  _603
REMARK  250  A    between atoms: _605  and  _607
REMARK  251  A    between atoms: _607  and  _608
REMARK  252  A    between atoms: _607  and  _610
REMARK  253  A    between atoms: _610  and  _611
REMARK  254  A    between atoms: _621  and  _623
REMARK  255  A    between atoms: _623  and  _624
REMARK  256  A    between atoms: _623  and  _626
REMARK  257  A    between atoms: _626  and  _627
REMARK  258  A    between atoms: _629  and  _631
REMARK  259  A    between atoms: _631  and  _632
REMARK  260  A    between atoms: _631  and  _634
REMARK  261  A    between atoms: _637  and  _639
REMARK  262  A    between atoms: _639  and  _640
REMARK  263  A    between atoms: _639  and  _642
REMARK  264  A    between atoms: _642  and  _643
REMARK  265  A    between atoms: _646  and  _648
REMARK  266  A    between atoms: _648  and  _649
REMARK  267  A    between atoms: _648  and  _651
REMARK  268  A    between atoms: _651  and  _652
REMARK                            x       y       z     vdW  Elec       q    Type
REMARK                         _______ _______ _______ _____ _____    ______ ____
ROOT
ATOM      1  CA  ILE A   1      -0.599 -11.825  14.447  0.00  0.00    +0.133 C 
ENDROOT
BRANCH   1   2
ATOM      2  N   ILE A   1      -1.303 -13.082  14.825  0.00  0.00    -0.239 NA
ATOM      3  H   ILE A   1      -2.342 -13.092  14.862  0.00  0.00    +0.142 HD
ENDBRANCH   1   2
BRANCH   1   4
ATOM      4  C   ILE A   1      -0.264 -10.969  15.696  0.00  0.00    +0.224 C 
ATOM      5  O   ILE A   1       0.756 -10.287  15.737  0.00  0.00    -0.287 OA
ENDBRANCH   1   4
BRANCH   1   6
ATOM      6  CB  ILE A   1      -1.421 -10.989  13.422  0.00  0.00    +0.023 C 
ATOM      7  CG2 ILE A   1      -0.672  -9.665  13.034  0.00  0.00    +0.002 C 
BRANCH   6   8
ATOM      8  CG1 ILE A   1      -1.670 -11.806  12.160  0.00  0.00    +0.002 C 
ATOM      9  CD1 ILE A   1      -0.403 -12.239  11.484  0.00  0.00    +0.000 C 
ENDBRANCH   6   8
ENDBRANCH   1   6
TORSDOF 4
REMARK  Name = ../refined-set-2016/3f8c/3f8c_pocket.pdb
REMARK  268 active torsions:
REMARK  status: ('A' for Active; 'I' for Inactive)
REMARK    1  A    between atoms: _1  and  _5
REMARK    2  A    between atoms: _5  and  _6
REMARK    3  A    between atoms: _5  and  _8
REMARK    4  A    between atoms: _8  and  _9
REMARK    5  A    between atoms: _9  and  _10
REMARK    6  A    between atoms: _14  and  _15
REMARK    7  A    between atoms: _20  and  _22
REMARK    8  A    between atoms: _22  and  _23
REMARK    9  A    between atoms: _22  and  _25
REMARK   10  A    between atoms: _25  and  _26
REMARK   11  A    between atoms: _26  and  _27
REMARK   12  A    between atoms: _29  and  _31
REMARK   13  A    between atoms: _31  and  _32
REMARK   14  A    between atoms: _31  and  _34
REMARK   15  A    between atoms: _34  and  _35
REMARK   16  A    between atoms: _35  and  _36
REMARK   17  A    between atoms: _36  and  _37
REMARK   18  A    between atoms: _46  and  _48
REMARK   19  A    between atoms: _48  and  _49
REMARK   20  A    between atoms: _52  and  _54
REMARK   21  A    between atoms: _54  and  _55
REMARK   22  A    between atoms: _54  and  _57
REMARK   23  A    between atoms: _57  and  _58
REMARK   24  A    between atoms: _58  and  _59
REMARK   25  A    between atoms: _64  and  _66
REMARK   26  A    between atoms: _66  and  _67
REMARK   27  A    between atoms: _66  and  _69
REMARK   28  A    between atoms: _69  and  _70
REMARK   29  A    between atoms: _73  and  _75
REMARK   30  A    between atoms: _75  and  _76
REMARK   31  A    between atoms: _75  and  _78
REMARK   32  A    between atoms: _78  and  _79
REMARK   33  A    between atoms: _84  and  _86
REMARK   34  A    between atoms: _86  and  _87
REMARK   35  A    between atoms: _86  and  _89
REMARK   36  A    between atoms: _92  and  _94
REMARK   37  A    between atoms: _94  and  _95
REMARK   38  A    between atoms: _94  and  _97
REMARK   39  A    between atoms: _97  and  _98
REMARK   40  A    between atoms: _101  and  _103
REMARK   41  A    between atoms: _103  and  _104
REMARK   42  A    between atoms: _103  and  _106
REMARK   43  A    between atoms: _106  and  _107
REMARK   44  A    between atoms: _110  and  _112
REMARK   45  A    between atoms: _112  and  _113
REMARK   46  A    between atoms: _112  and  _115
REMARK   47  A    between atoms: _115  and  _116
REMARK   48  A    between atoms: _121  and  _123
REMARK   49  A    between atoms: _123  and  _124
REMARK   50  A    between atoms: _123  and  _126
REMARK   51  A    between atoms: _126  and  _127
REMARK   52  A    between atoms: _127  and  _128
REMARK   53  A    between atoms: _128  and  _129
REMARK   54  A    between atoms: _129  and  _130
REMARK   55  A    between atoms: _134  and  _136
REMARK   56  A    between atoms: _136  and  _137
REMARK   57  A    between atoms: _136  and  _139
REMARK   58  A    between atoms: _139  and  _140
REMARK   59  A    between atoms: _140  and  _141
REMARK   60  A    between atoms: _141  and  _142
REMARK   61  A    between atoms: _151  and  _153
REMARK   62  A    between atoms: _153  and  _154
REMARK   63  A    between atoms: _153  and  _156
REMARK   64  A    between atoms: _156  and  _157
REMARK   65  A    between atoms: _160  and  _162
REMARK   66  A    between atoms: _162  and  _163
REMARK   67  A    between atoms: _162  and  _165
REMARK   68  A    between atoms: _165  and  _166
REMARK   69  A    between atoms: _169  and  _171
REMARK   70  A    between atoms: _171  and  _172
REMARK   71  A    between atoms: _171  and  _174
REMARK   72  A    between atoms: _174  and  _175
REMARK   73  A    between atoms: _178  and  _180
REMARK   74  A    between atoms: _180  and  _181
REMARK   75  A    between atoms: _180  and  _183
REMARK   76  A    between atoms: _183  and  _184
REMARK   77  A    between atoms: _187  and  _189
REMARK   78  A    between atoms: _189  and  _190
REMARK   79  A    between atoms: _189  and  _192
REMARK   80  A    between atoms: _192  and  _193
REMARK   81  A    between atoms: _196  and  _198
REMARK   82  A    between atoms: _198  and  _199
REMARK   83  A    between atoms: _201  and  _203
REMARK   84  A    between atoms: _203  and  _204
REMARK   85  A    between atoms: _203  and  _206
REMARK   86  A    between atoms: _206  and  _207
REMARK   87  A    between atoms: _212  and  _214
REMARK   88  A    between atoms: _214  and  _215
REMARK   89  A    between atoms: _214  and  _217
REMARK   90  A    between atoms: _217  and  _218
REMARK   91  A    between atoms: _218  and  _219
REMARK   92  A    between atoms: _222  and  _224
REMARK   93  A    between atoms: _224  and  _225
REMARK   94  A    between atoms: _224  and  _227
REMARK   95  A    between atoms: _227  and  _228
REMARK   96  A    between atoms: _233  and  _235
REMARK   97  A    between atoms: _235  and  _236
REMARK   98  A    between atoms: _235  and  _238
REMARK   99  A    between atoms: _238  and  _239
REMARK  100  A    between atoms: _239  and  _240
REMARK  101  A    between atoms: _242  and  _244
REMARK  102  A    between atoms: _244  and  _245
REMARK  103  A    between atoms: _244  and  _247
REMARK  104  A    between atoms: _247  and  _248
REMARK  105  A    between atoms: _248  and  _249
REMARK  106  A    between atoms: _249  and  _250
REMARK  107  A    between atoms: _259  and  _261
REMARK  108  A    between atoms: _261  and  _262
REMARK  109  A    between atoms: _261  and  _264
REMARK  110  A    between atoms: _264  and  _265
REMARK  111  A    between atoms: _268  and  _270
REMARK  112  A    between atoms: _270  and  _271
REMARK  113  A    between atoms: _274  and  _276
REMARK  114  A    between atoms: _276  and  _277
REMARK  115  A    between atoms: _276  and  _279
REMARK  116  A    between atoms: _279  and  _280
REMARK  117  A    between atoms: _286  and  _288
REMARK  118  A    between atoms: _288  and  _289
REMARK  119  A    between atoms: _288  and  _291
REMARK  120  A    between atoms: _291  and  _292
REMARK  121  A    between atoms: _292  and  _293
REMARK  122  A    between atoms: _296  and  _298
REMARK  123  A    between atoms: _298  and  _299
REMARK  124  A    between atoms: _298  and  _301
REMARK  125  A    between atoms: _301  and  _302
REMARK  126  A    between atoms: _304  and  _306
REMARK  127  A    between atoms: _306  and  _307
REMARK  128  A    between atoms: _306  and  _309
REMARK  129  A    between atoms: _309  and  _310
REMARK  130  A    between atoms: _320  and  _322
REMARK  131  A    between atoms: _322  and  _323
REMARK  132  A    between atoms: _322  and  _325
REMARK  133  A    between atoms: _325  and  _326
REMARK  134  A    between atoms: _328  and  _330
REMARK  135  A    between atoms: _330  and  _331
REMARK  136  A    between atoms: _330  and  _333
REMARK  137  A    between atoms: _336  and  _338
REMARK  138  A    between atoms: _338  and  _339
REMARK  139  A    between atoms: _338  and  _341
REMARK  140  A    between atoms: _341  and  _342
REMARK  141  A    between atoms: _345  and  _347
REMARK  142  A    between atoms: _347  and  _348
REMARK  143  A    between atoms: _347  and  _350
REMARK  144  A    between atoms: _350  and  _351
REMARK  145  A    between atoms: _354  and  _358
REMARK  146  A    between atoms: _358  and  _359
REMARK  147  A    between atoms: _358  and  _361
REMARK  148  A    between atoms: _361  and  _362
REMARK  149  A    between atoms: _362  and  _363
REMARK  150  A    between atoms: _367  and  _368
REMARK  151  A    between atoms: _373  and  _375
REMARK  152  A    between atoms: _375  and  _376
REMARK  153  A    between atoms: _375  and  _378
REMARK  154  A    between atoms: _378  and  _379
REMARK  155  A    between atoms: _379  and  _380
REMARK  156  A    between atoms: _382  and  _384
REMARK  157  A    between atoms: _384  and  _385
REMARK  158  A    between atoms: _388  and  _390
REMARK  159  A    between atoms: _390  and  _391
REMARK  160  A    between atoms: _390  and  _393
REMARK  161  A    between atoms: _393  and  _394
REMARK  162  A    between atoms: _394  and  _395
REMARK  163  A    between atoms: _400  and  _402
REMARK  164  A    between atoms: _402  and  _403
REMARK  165  A    between atoms: _402  and  _405
REMARK  166  A    between atoms: _405  and  _406
REMARK  167  A    between atoms: _411  and  _413
REMARK  168  A    between atoms: _413  and  _414
REMARK  169  A    between atoms: _413  and  _416
REMARK  170  A    between atoms: _419  and  _421
REMARK  171  A    between atoms: _421  and  _422
REMARK  172  A    between atoms: _421  and  _424
REMARK  173  A    between atoms: _424  and  _425
REMARK  174  A    between atoms: _428  and  _430
REMARK  175  A    between atoms: _430  and  _431
REMARK  176  A    between atoms: _430  and  _433
REMARK  177  A    between atoms: _433  and  _434
REMARK  178  A    between atoms: _437  and  _439
REMARK  179  A    between atoms: _439  and  _440
REMARK  180  A    between atoms: _439  and  _442
REMARK  181  A    between atoms: _442  and  _443
REMARK  182  A    between atoms: _448  and  _450
REMARK  183  A    between atoms: _450  and  _451
REMARK  184  A    between atoms: _450  and  _453
REMARK  185  A    between atoms: _453  and  _454
REMARK  186  A    between atoms: _454  and  _455
REMARK  187  A    between atoms: _455  and  _456
REMARK  188  A    between atoms: _456  and  _457
REMARK  189  A    between atoms: _461  and  _463
REMARK  190  A    between atoms: _463  and  _464
REMARK  191  A    between atoms: _463  and  _466
REMARK  192  A    between atoms: _466  and  _467
REMARK  193  A    between atoms: _470  and  _472
REMARK  194  A    between atoms: _472  and  _473
REMARK  195  A    between atoms: _472  and  _475
REMARK  196  A    between atoms: _475  and  _476
REMARK  197  A    between atoms: _479  and  _481
REMARK  198  A    between atoms: _481  and  _482
REMARK  199  A    between atoms: _481  and  _484
REMARK  200  A    between atoms: _484  and  _485
REMARK  201  A    between atoms: _488  and  _490
REMARK  202  A    between atoms: _490  and  _491
REMARK  203  A    between atoms: _490  and  _493
REMARK  204  A    between atoms: _493  and  _494
REMARK  205  A    between atoms: _497  and  _499
REMARK  206  A    between atoms: _499  and  _500
REMARK  207  A    between atoms: _502  and  _504
REMARK  208  A    between atoms: _504  and  _505
REMARK  209  A    between atoms: _504  and  _507
REMARK  210  A    between atoms: _507  and  _508
REMARK  211  A    between atoms: _513  and  _515
REMARK  212  A    between atoms: _515  and  _516
REMARK  213  A    between atoms: _515  and  _518
REMARK  214  A    between atoms: _518  and  _519
REMARK  215  A    between atoms: _519  and  _520
REMARK  216  A    between atoms: _523  and  _525
REMARK  217  A    between atoms: _525  and  _526
REMARK  218  A    between atoms: _525  and  _528
REMARK  219  A    between atoms: _528  and  _529
REMARK  220  A    between atoms: _534  and  _536
REMARK  221  A    between atoms: _536  and  _537
REMARK  222  A    between atoms: _536  and  _539
REMARK  223  A    between atoms: _539  and  _540
REMARK  224  A    between atoms: _540  and  _541
REMARK  225  A    between atoms: _543  and  _545
REMARK  226  A    between atoms: _545  and  _546
REMARK  227  A    between atoms: _545  and  _548
REMARK  228  A    between atoms: _548  and  _549
REMARK  229  A    between atoms: _549  and  _550
REMARK  230  A    between atoms: _550  and  _551
REMARK  231  A    between atoms: _560  and  _562
REMARK  232  A    between atoms: _562  and  _563
REMARK  233  A    between atoms: _562  and  _565
REMARK  234  A    between atoms: _565  and  _566
REMARK  235  A    between atoms: _569  and  _571
REMARK  236  A    between atoms: _571  and  _572
REMARK  237  A    between atoms: _575  and  _577
REMARK  238  A    between atoms: _577  and  _578
REMARK  239  A    between atoms: _577  and  _580
REMARK  240  A    between atoms: _580  and  _581
REMARK  241  A    between atoms: _587  and  _589
REMARK  242  A    between atoms: _589  and  _590
REMARK  243  A    between atoms: _589  and  _592
REMARK  244  A    between atoms: _592  and  _593
REMARK  245  A    between atoms: _593  and  _594
REMARK  246  A    between atoms: _597  and  _599
REMARK  247  A    between atoms: _599  and  _600
REMARK  248  A    between atoms: _599  and  _602
REMARK  249  A    between atoms: _602  and  _603
REMARK  250  A    between atoms: _605  and  _607
REMARK  251  A    between atoms: _607  and  _608
REMARK  252  A    between atoms: _607  and  _610
REMARK  253  A    between atoms: _610  and  _611
REMARK  254  A    between atoms: _621  and  _623
REMARK  255  A    between atoms: _623  and  _624
REMARK  256  A    between atoms: _623  and  _626
REMARK  257  A    between atoms: _626  and  _627
REMARK  258  A    between atoms: _629  and  _631
REMARK  259  A    between atoms: _631  and  _632
REMARK  260  A    between atoms: _631  and  _634
REMARK  261  A    between atoms: _637  and  _639
REMARK  262  A    between atoms: _639  and  _640
REMARK  263  A    between atoms: _639  and  _642
REMARK  264  A    between atoms: _642  and  _643
REMARK  265  A    between atoms: _646  and  _648
REMARK  266  A    between atoms: _648  and  _649
REMARK  267  A    between atoms: _648  and  _651
REMARK  268  A    between atoms: _651  and  _652
REMARK                            x       y       z     vdW  Elec       q    Type
REMARK                         _______ _______ _______ _____ _____    ______ ____
ROOT
ATOM      1  CA  LEU A   1       2.594  -7.859  17.966  0.00  0.00    +0.133 C 
ENDROOT
BRANCH   1   2
ATOM      2  N   LEU A   1       2.384  -7.271  19.295  0.00  0.00    -0.239 NA
ATOM      3  H   LEU A   1       2.872  -6.388  19.547  0.00  0.00    +0.142 HD
ENDBRANCH   1   2
BRANCH   1   4
ATOM      4  C   LEU A   1       3.443  -9.140  18.147  0.00  0.00    +0.224 C 
ATOM      5  O   LEU A   1       4.426  -9.129  18.872  0.00  0.00    -0.287 OA
ENDBRANCH   1   4
BRANCH   1   6
ATOM      6  CB  LEU A   1       3.331  -6.839  17.075  0.00  0.00    +0.025 C 
BRANCH   6   7
ATOM      7  CG  LEU A   1       3.256  -6.850  15.542  0.00  0.00    +0.002 C 
ATOM      8  CD2 LEU A   1       3.912  -5.587  15.052  0.00  0.00    +0.000 C 
ATOM      9  CD1 LEU A   1       1.844  -6.947  15.011  0.00  0.00    +0.000 C 
ENDBRANCH   6   7
ENDBRANCH   1   6
TORSDOF 4
REMARK  Name = ../refined-set-2016/3f8c/3f8c_pocket.pdb
REMARK  268 active torsions:
REMARK  status: ('A' for Active; 'I' for Inactive)
REMARK    1  A    between atoms: _1  and  _5
REMARK    2  A    between atoms: _5  and  _6
REMARK    3  A    between atoms: _5  and  _8
REMARK    4  A    between atoms: _8  and  _9
REMARK    5  A    between atoms: _9  and  _10
REMARK    6  A    between atoms: _14  and  _15
REMARK    7  A    between atoms: _20  and  _22
REMARK    8  A    between atoms: _22  and  _23
REMARK    9  A    between atoms: _22  and  _25
REMARK   10  A    between atoms: _25  and  _26
REMARK   11  A    between atoms: _26  and  _27
REMARK   12  A    between atoms: _29  and  _31
REMARK   13  A    between atoms: _31  and  _32
REMARK   14  A    between atoms: _31  and  _34
REMARK   15  A    between atoms: _34  and  _35
REMARK   16  A    between atoms: _35  and  _36
REMARK   17  A    between atoms: _36  and  _37
REMARK   18  A    between atoms: _46  and  _48
REMARK   19  A    between atoms: _48  and  _49
REMARK   20  A    between atoms: _52  and  _54
REMARK   21  A    between atoms: _54  and  _55
REMARK   22  A    between atoms: _54  and  _57
REMARK   23  A    between atoms: _57  and  _58
REMARK   24  A    between atoms: _58  and  _59
REMARK   25  A    between atoms: _64  and  _66
REMARK   26  A    between atoms: _66  and  _67
REMARK   27  A    between atoms: _66  and  _69
REMARK   28  A    between atoms: _69  and  _70
REMARK   29  A    between atoms: _73  and  _75
REMARK   30  A    between atoms: _75  and  _76
REMARK   31  A    between atoms: _75  and  _78
REMARK   32  A    between atoms: _78  and  _79
REMARK   33  A    between atoms: _84  and  _86
REMARK   34  A    between atoms: _86  and  _87
REMARK   35  A    between atoms: _86  and  _89
REMARK   36  A    between atoms: _92  and  _94
REMARK   37  A    between atoms: _94  and  _95
REMARK   38  A    between atoms: _94  and  _97
REMARK   39  A    between atoms: _97  and  _98
REMARK   40  A    between atoms: _101  and  _103
REMARK   41  A    between atoms: _103  and  _104
REMARK   42  A    between atoms: _103  and  _106
REMARK   43  A    between atoms: _106  and  _107
REMARK   44  A    between atoms: _110  and  _112
REMARK   45  A    between atoms: _112  and  _113
REMARK   46  A    between atoms: _112  and  _115
REMARK   47  A    between atoms: _115  and  _116
REMARK   48  A    between atoms: _121  and  _123
REMARK   49  A    between atoms: _123  and  _124
REMARK   50  A    between atoms: _123  and  _126
REMARK   51  A    between atoms: _126  and  _127
REMARK   52  A    between atoms: _127  and  _128
REMARK   53  A    between atoms: _128  and  _129
REMARK   54  A    between atoms: _129  and  _130
REMARK   55  A    between atoms: _134  and  _136
REMARK   56  A    between atoms: _136  and  _137
REMARK   57  A    between atoms: _136  and  _139
REMARK   58  A    between atoms: _139  and  _140
REMARK   59  A    between atoms: _140  and  _141
REMARK   60  A    between atoms: _141  and  _142
REMARK   61  A    between atoms: _151  and  _153
REMARK   62  A    between atoms: _153  and  _154
REMARK   63  A    between atoms: _153  and  _156
REMARK   64  A    between atoms: _156  and  _157
REMARK   65  A    between atoms: _160  and  _162
REMARK   66  A    between atoms: _162  and  _163
REMARK   67  A    between atoms: _162  and  _165
REMARK   68  A    between atoms: _165  and  _166
REMARK   69  A    between atoms: _169  and  _171
REMARK   70  A    between atoms: _171  and  _172
REMARK   71  A    between atoms: _171  and  _174
REMARK   72  A    between atoms: _174  and  _175
REMARK   73  A    between atoms: _178  and  _180
REMARK   74  A    between atoms: _180  and  _181
REMARK   75  A    between atoms: _180  and  _183
REMARK   76  A    between atoms: _183  and  _184
REMARK   77  A    between atoms: _187  and  _189
REMARK   78  A    between atoms: _189  and  _190
REMARK   79  A    between atoms: _189  and  _192
REMARK   80  A    between atoms: _192  and  _193
REMARK   81  A    between atoms: _196  and  _198
REMARK   82  A    between atoms: _198  and  _199
REMARK   83  A    between atoms: _201  and  _203
REMARK   84  A    between atoms: _203  and  _204
REMARK   85  A    between atoms: _203  and  _206
REMARK   86  A    between atoms: _206  and  _207
REMARK   87  A    between atoms: _212  and  _214
REMARK   88  A    between atoms: _214  and  _215
REMARK   89  A    between atoms: _214  and  _217
REMARK   90  A    between atoms: _217  and  _218
REMARK   91  A    between atoms: _218  and  _219
REMARK   92  A    between atoms: _222  and  _224
REMARK   93  A    between atoms: _224  and  _225
REMARK   94  A    between atoms: _224  and  _227
REMARK   95  A    between atoms: _227  and  _228
REMARK   96  A    between atoms: _233  and  _235
REMARK   97  A    between atoms: _235  and  _236
REMARK   98  A    between atoms: _235  and  _238
REMARK   99  A    between atoms: _238  and  _239
REMARK  100  A    between atoms: _239  and  _240
REMARK  101  A    between atoms: _242  and  _244
REMARK  102  A    between atoms: _244  and  _245
REMARK  103  A    between atoms: _244  and  _247
REMARK  104  A    between atoms: _247  and  _248
REMARK  105  A    between atoms: _248  and  _249
REMARK  106  A    between atoms: _249  and  _250
REMARK  107  A    between atoms: _259  and  _261
REMARK  108  A    between atoms: _261  and  _262
REMARK  109  A    between atoms: _261  and  _264
REMARK  110  A    between atoms: _264  and  _265
REMARK  111  A    between atoms: _268  and  _270
REMARK  112  A    between atoms: _270  and  _271
REMARK  113  A    between atoms: _274  and  _276
REMARK  114  A    between atoms: _276  and  _277
REMARK  115  A    between atoms: _276  and  _279
REMARK  116  A    between atoms: _279  and  _280
REMARK  117  A    between atoms: _286  and  _288
REMARK  118  A    between atoms: _288  and  _289
REMARK  119  A    between atoms: _288  and  _291
REMARK  120  A    between atoms: _291  and  _292
REMARK  121  A    between atoms: _292  and  _293
REMARK  122  A    between atoms: _296  and  _298
REMARK  123  A    between atoms: _298  and  _299
REMARK  124  A    between atoms: _298  and  _301
REMARK  125  A    between atoms: _301  and  _302
REMARK  126  A    between atoms: _304  and  _306
REMARK  127  A    between atoms: _306  and  _307
REMARK  128  A    between atoms: _306  and  _309
REMARK  129  A    between atoms: _309  and  _310
REMARK  130  A    between atoms: _320  and  _322
REMARK  131  A    between atoms: _322  and  _323
REMARK  132  A    between atoms: _322  and  _325
REMARK  133  A    between atoms: _325  and  _326
REMARK  134  A    between atoms: _328  and  _330
REMARK  135  A    between atoms: _330  and  _331
REMARK  136  A    between atoms: _330  and  _333
REMARK  137  A    between atoms: _336  and  _338
REMARK  138  A    between atoms: _338  and  _339
REMARK  139  A    between atoms: _338  and  _341
REMARK  140  A    between atoms: _341  and  _342
REMARK  141  A    between atoms: _345  and  _347
REMARK  142  A    between atoms: _347  and  _348
REMARK  143  A    between atoms: _347  and  _350
REMARK  144  A    between atoms: _350  and  _351
REMARK  145  A    between atoms: _354  and  _358
REMARK  146  A    between atoms: _358  and  _359
REMARK  147  A    between atoms: _358  and  _361
REMARK  148  A    between atoms: _361  and  _362
REMARK  149  A    between atoms: _362  and  _363
REMARK  150  A    between atoms: _367  and  _368
REMARK  151  A    between atoms: _373  and  _375
REMARK  152  A    between atoms: _375  and  _376
REMARK  153  A    between atoms: _375  and  _378
REMARK  154  A    between atoms: _378  and  _379
REMARK  155  A    between atoms: _379  and  _380
REMARK  156  A    between atoms: _382  and  _384
REMARK  157  A    between atoms: _384  and  _385
REMARK  158  A    between atoms: _388  and  _390
REMARK  159  A    between atoms: _390  and  _391
REMARK  160  A    between atoms: _390  and  _393
REMARK  161  A    between atoms: _393  and  _394
REMARK  162  A    between atoms: _394  and  _395
REMARK  163  A    between atoms: _400  and  _402
REMARK  164  A    between atoms: _402  and  _403
REMARK  165  A    between atoms: _402  and  _405
REMARK  166  A    between atoms: _405  and  _406
REMARK  167  A    between atoms: _411  and  _413
REMARK  168  A    between atoms: _413  and  _414
REMARK  169  A    between atoms: _413  and  _416
REMARK  170  A    between atoms: _419  and  _421
REMARK  171  A    between atoms: _421  and  _422
REMARK  172  A    between atoms: _421  and  _424
REMARK  173  A    between atoms: _424  and  _425
REMARK  174  A    between atoms: _428  and  _430
REMARK  175  A    between atoms: _430  and  _431
REMARK  176  A    between atoms: _430  and  _433
REMARK  177  A    between atoms: _433  and  _434
REMARK  178  A    between atoms: _437  and  _439
REMARK  179  A    between atoms: _439  and  _440
REMARK  180  A    between atoms: _439  and  _442
REMARK  181  A    between atoms: _442  and  _443
REMARK  182  A    between atoms: _448  and  _450
REMARK  183  A    between atoms: _450  and  _451
REMARK  184  A    between atoms: _450  and  _453
REMARK  185  A    between atoms: _453  and  _454
REMARK  186  A    between atoms: _454  and  _455
REMARK  187  A    between atoms: _455  and  _456
REMARK  188  A    between atoms: _456  and  _457
REMARK  189  A    between atoms: _461  and  _463
REMARK  190  A    between atoms: _463  and  _464
REMARK  191  A    between atoms: _463  and  _466
REMARK  192  A    between atoms: _466  and  _467
REMARK  193  A    between atoms: _470  and  _472
REMARK  194  A    between atoms: _472  and  _473
REMARK  195  A    between atoms: _472  and  _475
REMARK  196  A    between atoms: _475  and  _476
REMARK  197  A    between atoms: _479  and  _481
REMARK  198  A    between atoms: _481  and  _482
REMARK  199  A    between atoms: _481  and  _484
REMARK  200  A    between atoms: _484  and  _485
REMARK  201  A    between atoms: _488  and  _490
REMARK  202  A    between atoms: _490  and  _491
REMARK  203  A    between atoms: _490  and  _493
REMARK  204  A    between atoms: _493  and  _494
REMARK  205  A    between atoms: _497  and  _499
REMARK  206  A    between atoms: _499  and  _500
REMARK  207  A    between atoms: _502  and  _504
REMARK  208  A    between atoms: _504  and  _505
REMARK  209  A    between atoms: _504  and  _507
REMARK  210  A    between atoms: _507  and  _508
REMARK  211  A    between atoms: _513  and  _515
REMARK  212  A    between atoms: _515  and  _516
REMARK  213  A    between atoms: _515  and  _518
REMARK  214  A    between atoms: _518  and  _519
REMARK  215  A    between atoms: _519  and  _520
REMARK  216  A    between atoms: _523  and  _525
REMARK  217  A    between atoms: _525  and  _526
REMARK  218  A    between atoms: _525  and  _528
REMARK  219  A    between atoms: _528  and  _529
REMARK  220  A    between atoms: _534  and  _536
REMARK  221  A    between atoms: _536  and  _537
REMARK  222  A    between atoms: _536  and  _539
REMARK  223  A    between atoms: _539  and  _540
REMARK  224  A    between atoms: _540  and  _541
REMARK  225  A    between atoms: _543  and  _545
REMARK  226  A    between atoms: _545  and  _546
REMARK  227  A    between atoms: _545  and  _548
REMARK  228  A    between atoms: _548  and  _549
REMARK  229  A    between atoms: _549  and  _550
REMARK  230  A    between atoms: _550  and  _551
REMARK  231  A    between atoms: _560  and  _562
REMARK  232  A    between atoms: _562  and  _563
REMARK  233  A    between atoms: _562  and  _565
REMARK  234  A    between atoms: _565  and  _566
REMARK  235  A    between atoms: _569  and  _571
REMARK  236  A    between atoms: _571  and  _572
REMARK  237  A    between atoms: _575  and  _577
REMARK  238  A    between atoms: _577  and  _578
REMARK  239  A    between atoms: _577  and  _580
REMARK  240  A    between atoms: _580  and  _581
REMARK  241  A    between atoms: _587  and  _589
REMARK  242  A    between atoms: _589  and  _590
REMARK  243  A    between atoms: _589  and  _592
REMARK  244  A    between atoms: _592  and  _593
REMARK  245  A    between atoms: _593  and  _594
REMARK  246  A    between atoms: _597  and  _599
REMARK  247  A    between atoms: _599  and  _600
REMARK  248  A    between atoms: _599  and  _602
REMARK  249  A    between atoms: _602  and  _603
REMARK  250  A    between atoms: _605  and  _607
REMARK  251  A    between atoms: _607  and  _608
REMARK  252  A    between atoms: _607  and  _610
REMARK  253  A    between atoms: _610  and  _611
REMARK  254  A    between atoms: _621  and  _623
REMARK  255  A    between atoms: _623  and  _624
REMARK  256  A    between atoms: _623  and  _626
REMARK  257  A    between atoms: _626  and  _627
REMARK  258  A    between atoms: _629  and  _631
REMARK  259  A    between atoms: _631  and  _632
REMARK  260  A    between atoms: _631  and  _634
REMARK  261  A    between atoms: _637  and  _639
REMARK  262  A    between atoms: _639  and  _640
REMARK  263  A    between atoms: _639  and  _642
REMARK  264  A    between atoms: _642  and  _643
REMARK  265  A    between atoms: _646  and  _648
REMARK  266  A    between atoms: _648  and  _649
REMARK  267  A    between atoms: _648  and  _651
REMARK  268  A    between atoms: _651  and  _652
REMARK                            x       y       z     vdW  Elec       q    Type
REMARK                         _______ _______ _______ _____ _____    ______ ____
ROOT
ATOM      1  C   ARG A   7       7.803  -7.157   5.727  0.00  0.00    +0.241 C 
ATOM      2  N   LEU A   8       7.279  -8.353   5.467  0.00  0.00    -0.297 N 
ATOM      3  H   LEU A   8       6.955  -8.946   6.257  0.00  0.00    +0.150 HD
ATOM      4  O   ARG A   7       8.167  -6.385   4.850  0.00  0.00    -0.273 OA
ENDROOT
BRANCH   2   5
ATOM      5  CA  LEU A   8       7.147  -8.852   4.108  0.00  0.00    +0.149 C 
BRANCH   5   6
ATOM      6  C   LEU A   8       6.148  -8.032   3.304  0.00  0.00    +0.241 C 
ATOM      7  N   ALA A   9       5.011  -7.688   3.922  0.00  0.00    -0.297 N 
ATOM      8  H   ALA A   9       4.821  -8.049   4.879  0.00  0.00    +0.150 HD
ATOM      9  O   LEU A   8       6.391  -7.734   2.134  0.00  0.00    -0.273 OA
BRANCH   7  10
ATOM     10  CA  ALA A   9       4.028  -6.812   3.277  0.00  0.00    +0.149 C 
ATOM     11  CB  ALA A   9       2.790  -6.618   4.175  0.00  0.00    +0.031 C 
BRANCH  10  12
ATOM     12  C   ALA A   9       4.660  -5.463   2.942  0.00  0.00    +0.241 C 
ATOM     13  N   PHE A  10       5.385  -4.901   3.892  0.00  0.00    -0.297 N 
ATOM     14  H   PHE A  10       5.505  -5.392   4.801  0.00  0.00    +0.150 HD
ATOM     15  O   ALA A   9       4.484  -4.938   1.852  0.00  0.00    -0.273 OA
BRANCH  13  16
ATOM     16  CA  PHE A  10       6.021  -3.601   3.688  0.00  0.00    +0.153 C 
BRANCH  16  17
ATOM     17  C   PHE A  10       7.074  -3.669   2.583  0.00  0.00    +0.241 C 
ATOM     18  N   GLU A  11       7.879  -4.720   2.626  0.00  0.00    -0.297 N 
ATOM     19  H   GLU A  11       7.746  -5.414   3.389  0.00  0.00    +0.150 HD
ATOM     20  O   PHE A  10       7.165  -2.784   1.735  0.00  0.00    -0.273 OA
BRANCH  18  21
ATOM     21  CA  GLU A  11       8.944  -4.952   1.655  0.00  0.00    +0.149 C 
BRANCH  21  22
ATOM     22  C   GLU A  11       8.356  -5.088   0.255  0.00  0.00    +0.241 C 
ATOM     23  N   SER A  12       7.301  -5.885   0.122  0.00  0.00    -0.295 N 
ATOM     24  H   SER A  12       6.856  -6.306   0.963  0.00  0.00    +0.150 HD
ATOM     25  O   GLU A  11       8.854  -4.502  -0.694  0.00  0.00    -0.273 OA
BRANCH  23  26
ATOM     26  CA  SER A  12       6.767  -6.168  -1.209  0.00  0.00    +0.178 C 
BRANCH  26  27
ATOM     27  C   SER A  12       6.054  -4.938  -1.801  0.00  0.00    +0.243 C 
ATOM     28  N   TRP A  13       5.334  -4.192  -0.964  0.00  0.00    -0.297 N 
ATOM     29  H   TRP A  13       5.223  -4.493   0.025  0.00  0.00    +0.150 HD
ATOM     30  O   SER A  12       6.224  -4.627  -2.967  0.00  0.00    -0.273 OA
BRANCH  28  31
ATOM     31  CA  TRP A  13       4.696  -2.952  -1.420  0.00  0.00    +0.153 C 
BRANCH  31  32
ATOM     32  C   TRP A  13       5.683  -1.806  -1.727  0.00  0.00    +0.241 C 
ATOM     33  N   SER A  14       6.848  -1.805  -1.080  0.00  0.00    -0.296 N 
ATOM     34  H   SER A  14       7.013  -2.489  -0.314  0.00  0.00    +0.150 HD
ATOM     35  O   TRP A  13       5.391  -0.943  -2.543  0.00  0.00    -0.273 OA
BRANCH  33  36
ATOM     36  CA  SER A  14       7.908  -0.841  -1.440  0.00  0.00    +0.166 C 
BRANCH  36  37
ATOM     37  C   SER A  14       8.495  -1.167  -2.820  0.00  0.00    +0.229 C 
ATOM     38  O   SER A  14       8.812  -0.260  -3.608  0.00  0.00    -0.286 OA
ENDBRANCH  36  37
BRANCH  36  39
ATOM     39  CB  SER A  14       9.024  -0.828  -0.393  0.00  0.00    +0.165 C 
BRANCH  39  40
ATOM     40  OG  SER A  14       8.530  -0.367   0.837  0.00  0.00    -0.380 OA
ATOM     41  H   SER A  14       7.804  -0.965   1.145  0.00  0.00    +0.211 HD
ENDBRANCH  39  40
ENDBRANCH  36  39
ENDBRANCH  33  36
ENDBRANCH  31  32
BRANCH  31  42
ATOM     42  CB  TRP A  13       3.606  -2.489  -0.443  0.00  0.00    +0.057 C 
BRANCH  42  43
ATOM     43  CG  TRP A  13       2.328  -3.270  -0.574  0.00  0.00    -0.002 A 
ATOM     44  CD1 TRP A  13       1.841  -4.169   0.305  0.00  0.00    +0.068 A 
ATOM     45  NE1 TRP A  13       0.639  -4.680  -0.152  0.00  0.00    -0.352 N 
ATOM     46  HE1 TRP A  13       0.058  -5.388   0.341  0.00  0.00    +0.166 HD
ATOM     47  CE2 TRP A  13       0.336  -4.103  -1.361  0.00  0.00    +0.056 A 
ATOM     48  CZ2 TRP A  13      -0.779  -4.288  -2.204  0.00  0.00    +0.017 A 
ATOM     49  CH2 TRP A  13      -0.819  -3.561  -3.370  0.00  0.00    +0.001 A 
ATOM     50  CZ3 TRP A  13       0.201  -2.650  -3.699  0.00  0.00    +0.000 A 
ATOM     51  CE3 TRP A  13       1.298  -2.460  -2.855  0.00  0.00    +0.001 A 
ATOM     52  CD2 TRP A  13       1.375  -3.208  -1.667  0.00  0.00    +0.013 A 
ENDBRANCH  42  43
ENDBRANCH  31  42
ENDBRANCH  28  31
ENDBRANCH  26  27
BRANCH  26  53
ATOM     53  CB  SER A  12       5.890  -7.437  -1.218  0.00  0.00    +0.166 C 
BRANCH  53  54
ATOM     54  OG  SER A  12       4.793  -7.326  -0.337  0.00  0.00    -0.380 OA
ATOM     55  H   SER A  12       5.125  -7.185   0.585  0.00  0.00    +0.211 HD
ENDBRANCH  53  54
ENDBRANCH  26  53
ENDBRANCH  23  26
ENDBRANCH  21  22
BRANCH  21  56
ATOM     56  CB  GLU A  11       9.672  -6.245   2.017  0.00  0.00    +0.041 C 
BRANCH  56  57
ATOM     57  CG  GLU A  11      11.143  -6.228   1.771  0.00  0.00    +0.116 C 
BRANCH  57  58
ATOM     58  CD  GLU A  11      11.873  -5.379   2.780  0.00  0.00    +0.365 C 
ATOM     59  OE2 GLU A  11      11.237  -4.973   3.786  0.00  0.00    -0.246 OA
ATOM     60  OE1 GLU A  11      13.081  -5.109   2.567  0.00  0.00    -0.246 OA
ENDBRANCH  57  58
ENDBRANCH  56  57
ENDBRANCH  21  56
ENDBRANCH  18  21
ENDBRANCH  16  17
BRANCH  16  61
ATOM     61  CB  PHE A  10       6.685  -3.138   4.972  0.00  0.00    +0.055 C 
BRANCH  61  62
ATOM     62  CG  PHE A  10       7.431  -1.857   4.829  0.00  0.00    -0.020 A 
ATOM     63  CD2 PHE A  10       6.749  -0.647   4.791  0.00  0.00    -0.004 A 
ATOM     64  CE2 PHE A  10       7.442   0.554   4.650  0.00  0.00    -0.000 A 
ATOM     65  CZ  PHE A  10       8.841   0.546   4.543  0.00  0.00    -0.000 A 
ATOM     66  CE1 PHE A  10       9.525  -0.654   4.575  0.00  0.00    -0.000 A 
ATOM     67  CD1 PHE A  10       8.823  -1.852   4.720  0.00  0.00    -0.004 A 
ENDBRANCH  61  62
ENDBRANCH  16  61
ENDBRANCH  13  16
ENDBRANCH  10  12
ENDBRANCH   7  10
ENDBRANCH   5   6
BRANCH   5  68
ATOM     68  CB  LEU A   8       6.733 -10.328   4.108  0.00  0.00    +0.029 C 
BRANCH  68  69
ATOM     69  CG  LEU A   8       7.791 -11.311   4.589  0.00  0.00    +0.002 C 
ATOM     70  CD2 LEU A   8       7.161 -12.661   4.896  0.00  0.00    +0.000 C 
ATOM     71  CD1 LEU A   8       8.907 -11.452   3.546  0.00  0.00    +0.000 C 
ENDBRANCH  68  69
ENDBRANCH   5  68
ENDBRANCH   2   5
BRANCH   1  72
ATOM     72  CA  ARG A   7       7.923  -6.770   7.207  0.00  0.00    +0.149 C 
BRANCH  72  74
ATOM     73  C   MET A   6       5.545  -6.422   7.537  0.00  0.00    +0.241 C 
ATOM     74  N   ARG A   7       6.670  -7.028   7.913  0.00  0.00    -0.297 N 
ATOM     75  H   ARG A   7       6.656  -7.690   8.715  0.00  0.00    +0.150 HD
ATOM     76  O   MET A   6       5.508  -5.586   6.624  0.00  0.00    -0.273 OA
BRANCH  73  77
ATOM     77  CA  MET A   6       4.298  -6.760   8.335  0.00  0.00    +0.149 C 
BRANCH  77  79
ATOM     78  C   ASN A   5       4.133  -9.081   7.614  0.00  0.00    +0.241 C 
ATOM     79  N   MET A   6       4.205  -8.202   8.611  0.00  0.00    -0.297 N 
ATOM     80  H   MET A   6       4.195  -8.538   9.595  0.00  0.00    +0.150 HD
ATOM     81  O   ASN A   5       4.021  -8.746   6.442  0.00  0.00    -0.273 OA
BRANCH  78  82
ATOM     82  CA  ASN A   5       4.173 -10.533   7.991  0.00  0.00    +0.158 C 
BRANCH  82  84
ATOM     83  C   GLU A   4       6.496 -10.547   8.756  0.00  0.00    +0.241 C 
ATOM     84  N   ASN A   5       5.213 -10.825   8.988  0.00  0.00    -0.297 N 
ATOM     85  H   ASN A   5       4.942 -11.258   9.894  0.00  0.00    +0.150 HD
ATOM     86  O   GLU A   4       6.900 -10.093   7.673  0.00  0.00    -0.273 OA
BRANCH  83  87
ATOM     87  CA  GLU A   4       7.474 -10.806   9.915  0.00  0.00    +0.149 C 
BRANCH  87  89
ATOM     88  C   HIS A   3       6.791  -9.001  11.390  0.00  0.00    +0.241 C 
ATOM     89  N   GLU A   4       6.975 -10.304  11.183  0.00  0.00    -0.297 N 
ATOM     90  H   GLU A   4       6.757 -10.976  11.946  0.00  0.00    +0.150 HD
ATOM     91  O   HIS A   3       7.072  -8.153  10.556  0.00  0.00    -0.273 OA
BRANCH  88  92
ATOM     92  CA  HIS A   3       6.286  -8.597  12.776  0.00  0.00    +0.155 C 
BRANCH  92  94
ATOM     93  C   GLY A   2       4.038  -9.631  12.599  0.00  0.00    +0.243 C 
ATOM     94  N   HIS A   3       5.203  -9.472  13.258  0.00  0.00    -0.297 N 
ATOM     95  H   HIS A   3       5.344  -9.991  14.148  0.00  0.00    +0.150 HD
ATOM     96  O   GLY A   2       3.764  -9.036  11.555  0.00  0.00    -0.273 OA
BRANCH  93  97
ATOM     97  CA  GLY A   2       3.046 -10.621  13.214  0.00  0.00    +0.176 C 
BRANCH  97  99
ATOM     98  C   ILE A   1       4.313 -12.611  12.646  0.00  0.00    +0.238 C 
ATOM     99  N   GLY A   2       3.705 -11.872  13.571  0.00  0.00    -0.296 N 
ATOM    100  H   GLY A   2       3.700 -12.191  14.561  0.00  0.00    +0.150 HD
ATOM    101  O   ILE A   1       4.358 -12.287  11.457  0.00  0.00    -0.274 OA
BRANCH  98 102
ATOM    102  CA  ILE A   1       4.991 -13.891  13.132  0.00  0.00    +0.145 C 
BRANCH 102 103
ATOM    103  N   ILE A   1       5.663 -13.650  14.432  0.00  0.00    -0.238 NA
ATOM    104  H   ILE A   1       5.372 -14.194  15.270  0.00  0.00    +0.142 HD
ENDBRANCH 102 103
BRANCH 102 105
ATOM    105  CB  ILE A   1       3.947 -15.039  13.213  0.00  0.00    +0.025 C 
ATOM    106  CG2 ILE A   1       3.033 -15.017  12.007  0.00  0.00    +0.002 C 
BRANCH 105 107
ATOM    107  CG1 ILE A   1       4.651 -16.389  13.300  0.00  0.00    +0.002 C 
ATOM    108  CD1 ILE A   1       5.390 -16.776  12.009  0.00  0.00    +0.000 C 
ENDBRANCH 105 107
ENDBRANCH 102 105
ENDBRANCH  98 102
ENDBRANCH  97  99
ENDBRANCH  93  97
ENDBRANCH  92  94
BRANCH  92 109
ATOM    109  CB  HIS A   3       7.478  -8.634  13.743  0.00  0.00    +0.076 C 
BRANCH 109 110
ATOM    110  CG  HIS A   3       7.392  -7.644  14.853  0.00  0.00    +0.082 A 
ATOM    111  ND1 HIS A   3       7.099  -8.008  16.154  0.00  0.00    -0.227 NA
ATOM    112  CE1 HIS A   3       7.121  -6.933  16.926  0.00  0.00    +0.199 A 
ATOM    113  NE2 HIS A   3       7.439  -5.890  16.178  0.00  0.00    -0.221 NA
ATOM    114  CD2 HIS A   3       7.624  -6.309  14.878  0.00  0.00    +0.115 A 
ENDBRANCH 109 110
ENDBRANCH  92 109
ENDBRANCH  88  92
ENDBRANCH  87  89
BRANCH  87 115
ATOM    115  CB  GLU A   4       7.801 -12.292  10.019  0.00  0.00    +0.041 C 
BRANCH 115 116
ATOM    116  CG  GLU A   4       8.652 -12.793   8.885  0.00  0.00    +0.116 C 
BRANCH 116 117
ATOM    117  CD  GLU A   4       9.967 -12.007   8.748  0.00  0.00    +0.365 C 
ATOM    118  OE2 GLU A   4      10.471 -11.468   9.778  0.00  0.00    -0.246 OA
ATOM    119  OE1 GLU A   4      10.494 -11.938   7.619  0.00  0.00    -0.246 OA
ENDBRANCH 116 117
ENDBRANCH 115 116
ENDBRANCH  87 115
ENDBRANCH  83  87
ENDBRANCH  82  84
BRANCH  82 120
ATOM    120  CB  ASN A   5       2.803 -10.981   8.487  0.00  0.00    +0.114 C 
BRANCH 120 121
ATOM    121  CG  ASN A   5       2.635 -12.463   8.417  0.00  0.00    +0.222 C 
ATOM    122  ND2 ASN A   5       1.625 -12.988   9.104  0.00  0.00    -0.329 N 
ATOM    123 HD21 ASN A   5       0.991 -12.370   9.650  0.00  0.00    +0.145 HD
ATOM    124 HD22 ASN A   5       1.469 -14.016   9.095  0.00  0.00    +0.145 HD
ATOM    125  OD1 ASN A   5       3.412 -13.143   7.757  0.00  0.00    -0.275 OA
ENDBRANCH 120 121
ENDBRANCH  82 120
ENDBRANCH  78  82
ENDBRANCH  77  79
BRANCH  77 126
ATOM    126  CB  MET A   6       4.323  -5.966   9.621  0.00  0.00    +0.041 C 
BRANCH 126 127
ATOM    127  CG  MET A   6       3.030  -5.984  10.387  0.00  0.00    +0.060 C 
BRANCH 127 128
ATOM    128  SD  MET A   6       3.141  -4.803  11.743  0.00  0.00    -0.139 S 
ATOM    129  CE  MET A   6       2.716  -3.271  10.857  0.00  0.00    +0.069 C 
ENDBRANCH 127 128
ENDBRANCH 126 127
ENDBRANCH  77 126
ENDBRANCH  73  77
ENDBRANCH  72  74
BRANCH  72 130
ATOM    130  CB  ARG A   7       9.096  -7.521   7.859  0.00  0.00    +0.033 C 
BRANCH 130 131
ATOM    131  CG  ARG A   7      10.455  -7.136   7.258  0.00  0.00    +0.045 C 
BRANCH 131 132
ATOM    132  CD  ARG A   7      11.631  -7.875   7.925  0.00  0.00    +0.174 C 
BRANCH 132 133
ATOM    133  NE  ARG A   7      11.784  -9.223   7.394  0.00  0.00    -0.265 N 
ATOM    134  HE  ARG A   7      11.675 -10.022   8.051  0.00  0.00    +0.259 HD
ATOM    135  CZ  ARG A   7      12.055  -9.496   6.116  0.00  0.00    +0.342 C 
ATOM    136  NH2 ARG A   7      12.176 -10.760   5.715  0.00  0.00    -0.292 N 
ATOM    137 HH21 ARG A   7      12.059 -11.536   6.398  0.00  0.00    +0.255 HD
ATOM    138 HH22 ARG A   7      12.387 -10.972   4.719  0.00  0.00    +0.255 HD
ATOM    139  NH1 ARG A   7      12.202  -8.503   5.235  0.00  0.00    -0.292 N 
ATOM    140 HH11 ARG A   7      12.105  -7.515   5.544  0.00  0.00    +0.255 HD
ATOM    141 HH12 ARG A   7      12.413  -8.718   4.240  0.00  0.00    +0.255 HD
ENDBRANCH 132 133
ENDBRANCH 131 132
ENDBRANCH 130 131
ENDBRANCH  72 130
ENDBRANCH   1  72
TORSDOF 57
REMARK  Name = ../refined-set-2016/3f8c/3f8c_pocket.pdb
REMARK  268 active torsions:
REMARK  status: ('A' for Active; 'I' for Inactive)
REMARK    1  A    between atoms: _1  and  _5
REMARK    2  A    between atoms: _5  and  _6
REMARK    3  A    between atoms: _5  and  _8
REMARK    4  A    between atoms: _8  and  _9
REMARK    5  A    between atoms: _9  and  _10
REMARK    6  A    between atoms: _14  and  _15
REMARK    7  A    between atoms: _20  and  _22
REMARK    8  A    between atoms: _22  and  _23
REMARK    9  A    between atoms: _22  and  _25
REMARK   10  A    between atoms: _25  and  _26
REMARK   11  A    between atoms: _26  and  _27
REMARK   12  A    between atoms: _29  and  _31
REMARK   13  A    between atoms: _31  and  _32
REMARK   14  A    between atoms: _31  and  _34
REMARK   15  A    between atoms: _34  and  _35
REMARK   16  A    between atoms: _35  and  _36
REMARK   17  A    between atoms: _36  and  _37
REMARK   18  A    between atoms: _46  and  _48
REMARK   19  A    between atoms: _48  and  _49
REMARK   20  A    between atoms: _52  and  _54
REMARK   21  A    between atoms: _54  and  _55
REMARK   22  A    between atoms: _54  and  _57
REMARK   23  A    between atoms: _57  and  _58
REMARK   24  A    between atoms: _58  and  _59
REMARK   25  A    between atoms: _64  and  _66
REMARK   26  A    between atoms: _66  and  _67
REMARK   27  A    between atoms: _66  and  _69
REMARK   28  A    between atoms: _69  and  _70
REMARK   29  A    between atoms: _73  and  _75
REMARK   30  A    between atoms: _75  and  _76
REMARK   31  A    between atoms: _75  and  _78
REMARK   32  A    between atoms: _78  and  _79
REMARK   33  A    between atoms: _84  and  _86
REMARK   34  A    between atoms: _86  and  _87
REMARK   35  A    between atoms: _86  and  _89
REMARK   36  A    between atoms: _92  and  _94
REMARK   37  A    between atoms: _94  and  _95
REMARK   38  A    between atoms: _94  and  _97
REMARK   39  A    between atoms: _97  and  _98
REMARK   40  A    between atoms: _101  and  _103
REMARK   41  A    between atoms: _103  and  _104
REMARK   42  A    between atoms: _103  and  _106
REMARK   43  A    between atoms: _106  and  _107
REMARK   44  A    between atoms: _110  and  _112
REMARK   45  A    between atoms: _112  and  _113
REMARK   46  A    between atoms: _112  and  _115
REMARK   47  A    between atoms: _115  and  _116
REMARK   48  A    between atoms: _121  and  _123
REMARK   49  A    between atoms: _123  and  _124
REMARK   50  A    between atoms: _123  and  _126
REMARK   51  A    between atoms: _126  and  _127
REMARK   52  A    between atoms: _127  and  _128
REMARK   53  A    between atoms: _128  and  _129
REMARK   54  A    between atoms: _129  and  _130
REMARK   55  A    between atoms: _134  and  _136
REMARK   56  A    between atoms: _136  and  _137
REMARK   57  A    between atoms: _136  and  _139
REMARK   58  A    between atoms: _139  and  _140
REMARK   59  A    between atoms: _140  and  _141
REMARK   60  A    between atoms: _141  and  _142
REMARK   61  A    between atoms: _151  and  _153
REMARK   62  A    between atoms: _153  and  _154
REMARK   63  A    between atoms: _153  and  _156
REMARK   64  A    between atoms: _156  and  _157
REMARK   65  A    between atoms: _160  and  _162
REMARK   66  A    between atoms: _162  and  _163
REMARK   67  A    between atoms: _162  and  _165
REMARK   68  A    between atoms: _165  and  _166
REMARK   69  A    between atoms: _169  and  _171
REMARK   70  A    between atoms: _171  and  _172
REMARK   71  A    between atoms: _171  and  _174
REMARK   72  A    between atoms: _174  and  _175
REMARK   73  A    between atoms: _178  and  _180
REMARK   74  A    between atoms: _180  and  _181
REMARK   75  A    between atoms: _180  and  _183
REMARK   76  A    between atoms: _183  and  _184
REMARK   77  A    between atoms: _187  and  _189
REMARK   78  A    between atoms: _189  and  _190
REMARK   79  A    between atoms: _189  and  _192
REMARK   80  A    between atoms: _192  and  _193
REMARK   81  A    between atoms: _196  and  _198
REMARK   82  A    between atoms: _198  and  _199
REMARK   83  A    between atoms: _201  and  _203
REMARK   84  A    between atoms: _203  and  _204
REMARK   85  A    between atoms: _203  and  _206
REMARK   86  A    between atoms: _206  and  _207
REMARK   87  A    between atoms: _212  and  _214
REMARK   88  A    between atoms: _214  and  _215
REMARK   89  A    between atoms: _214  and  _217
REMARK   90  A    between atoms: _217  and  _218
REMARK   91  A    between atoms: _218  and  _219
REMARK   92  A    between atoms: _222  and  _224
REMARK   93  A    between atoms: _224  and  _225
REMARK   94  A    between atoms: _224  and  _227
REMARK   95  A    between atoms: _227  and  _228
REMARK   96  A    between atoms: _233  and  _235
REMARK   97  A    between atoms: _235  and  _236
REMARK   98  A    between atoms: _235  and  _238
REMARK   99  A    between atoms: _238  and  _239
REMARK  100  A    between atoms: _239  and  _240
REMARK  101  A    between atoms: _242  and  _244
REMARK  102  A    between atoms: _244  and  _245
REMARK  103  A    between atoms: _244  and  _247
REMARK  104  A    between atoms: _247  and  _248
REMARK  105  A    between atoms: _248  and  _249
REMARK  106  A    between atoms: _249  and  _250
REMARK  107  A    between atoms: _259  and  _261
REMARK  108  A    between atoms: _261  and  _262
REMARK  109  A    between atoms: _261  and  _264
REMARK  110  A    between atoms: _264  and  _265
REMARK  111  A    between atoms: _268  and  _270
REMARK  112  A    between atoms: _270  and  _271
REMARK  113  A    between atoms: _274  and  _276
REMARK  114  A    between atoms: _276  and  _277
REMARK  115  A    between atoms: _276  and  _279
REMARK  116  A    between atoms: _279  and  _280
REMARK  117  A    between atoms: _286  and  _288
REMARK  118  A    between atoms: _288  and  _289
REMARK  119  A    between atoms: _288  and  _291
REMARK  120  A    between atoms: _291  and  _292
REMARK  121  A    between atoms: _292  and  _293
REMARK  122  A    between atoms: _296  and  _298
REMARK  123  A    between atoms: _298  and  _299
REMARK  124  A    between atoms: _298  and  _301
REMARK  125  A    between atoms: _301  and  _302
REMARK  126  A    between atoms: _304  and  _306
REMARK  127  A    between atoms: _306  and  _307
REMARK  128  A    between atoms: _306  and  _309
REMARK  129  A    between atoms: _309  and  _310
REMARK  130  A    between atoms: _320  and  _322
REMARK  131  A    between atoms: _322  and  _323
REMARK  132  A    between atoms: _322  and  _325
REMARK  133  A    between atoms: _325  and  _326
REMARK  134  A    between atoms: _328  and  _330
REMARK  135  A    between atoms: _330  and  _331
REMARK  136  A    between atoms: _330  and  _333
REMARK  137  A    between atoms: _336  and  _338
REMARK  138  A    between atoms: _338  and  _339
REMARK  139  A    between atoms: _338  and  _341
REMARK  140  A    between atoms: _341  and  _342
REMARK  141  A    between atoms: _345  and  _347
REMARK  142  A    between atoms: _347  and  _348
REMARK  143  A    between atoms: _347  and  _350
REMARK  144  A    between atoms: _350  and  _351
REMARK  145  A    between atoms: _354  and  _358
REMARK  146  A    between atoms: _358  and  _359
REMARK  147  A    between atoms: _358  and  _361
REMARK  148  A    between atoms: _361  and  _362
REMARK  149  A    between atoms: _362  and  _363
REMARK  150  A    between atoms: _367  and  _368
REMARK  151  A    between atoms: _373  and  _375
REMARK  152  A    between atoms: _375  and  _376
REMARK  153  A    between atoms: _375  and  _378
REMARK  154  A    between atoms: _378  and  _379
REMARK  155  A    between atoms: _379  and  _380
REMARK  156  A    between atoms: _382  and  _384
REMARK  157  A    between atoms: _384  and  _385
REMARK  158  A    between atoms: _388  and  _390
REMARK  159  A    between atoms: _390  and  _391
REMARK  160  A    between atoms: _390  and  _393
REMARK  161  A    between atoms: _393  and  _394
REMARK  162  A    between atoms: _394  and  _395
REMARK  163  A    between atoms: _400  and  _402
REMARK  164  A    between atoms: _402  and  _403
REMARK  165  A    between atoms: _402  and  _405
REMARK  166  A    between atoms: _405  and  _406
REMARK  167  A    between atoms: _411  and  _413
REMARK  168  A    between atoms: _413  and  _414
REMARK  169  A    between atoms: _413  and  _416
REMARK  170  A    between atoms: _419  and  _421
REMARK  171  A    between atoms: _421  and  _422
REMARK  172  A    between atoms: _421  and  _424
REMARK  173  A    between atoms: _424  and  _425
REMARK  174  A    between atoms: _428  and  _430
REMARK  175  A    between atoms: _430  and  _431
REMARK  176  A    between atoms: _430  and  _433
REMARK  177  A    between atoms: _433  and  _434
REMARK  178  A    between atoms: _437  and  _439
REMARK  179  A    between atoms: _439  and  _440
REMARK  180  A    between atoms: _439  and  _442
REMARK  181  A    between atoms: _442  and  _443
REMARK  182  A    between atoms: _448  and  _450
REMARK  183  A    between atoms: _450  and  _451
REMARK  184  A    between atoms: _450  and  _453
REMARK  185  A    between atoms: _453  and  _454
REMARK  186  A    between atoms: _454  and  _455
REMARK  187  A    between atoms: _455  and  _456
REMARK  188  A    between atoms: _456  and  _457
REMARK  189  A    between atoms: _461  and  _463
REMARK  190  A    between atoms: _463  and  _464
REMARK  191  A    between atoms: _463  and  _466
REMARK  192  A    between atoms: _466  and  _467
REMARK  193  A    between atoms: _470  and  _472
REMARK  194  A    between atoms: _472  and  _473
REMARK  195  A    between atoms: _472  and  _475
REMARK  196  A    between atoms: _475  and  _476
REMARK  197  A    between atoms: _479  and  _481
REMARK  198  A    between atoms: _481  and  _482
REMARK  199  A    between atoms: _481  and  _484
REMARK  200  A    between atoms: _484  and  _485
REMARK  201  A    between atoms: _488  and  _490
REMARK  202  A    between atoms: _490  and  _491
REMARK  203  A    between atoms: _490  and  _493
REMARK  204  A    between atoms: _493  and  _494
REMARK  205  A    between atoms: _497  and  _499
REMARK  206  A    between atoms: _499  and  _500
REMARK  207  A    between atoms: _502  and  _504
REMARK  208  A    between atoms: _504  and  _505
REMARK  209  A    between atoms: _504  and  _507
REMARK  210  A    between atoms: _507  and  _508
REMARK  211  A    between atoms: _513  and  _515
REMARK  212  A    between atoms: _515  and  _516
REMARK  213  A    between atoms: _515  and  _518
REMARK  214  A    between atoms: _518  and  _519
REMARK  215  A    between atoms: _519  and  _520
REMARK  216  A    between atoms: _523  and  _525
REMARK  217  A    between atoms: _525  and  _526
REMARK  218  A    between atoms: _525  and  _528
REMARK  219  A    between atoms: _528  and  _529
REMARK  220  A    between atoms: _534  and  _536
REMARK  221  A    between atoms: _536  and  _537
REMARK  222  A    between atoms: _536  and  _539
REMARK  223  A    between atoms: _539  and  _540
REMARK  224  A    between atoms: _540  and  _541
REMARK  225  A    between atoms: _543  and  _545
REMARK  226  A    between atoms: _545  and  _546
REMARK  227  A    between atoms: _545  and  _548
REMARK  228  A    between atoms: _548  and  _549
REMARK  229  A    between atoms: _549  and  _550
REMARK  230  A    between atoms: _550  and  _551
REMARK  231  A    between atoms: _560  and  _562
REMARK  232  A    between atoms: _562  and  _563
REMARK  233  A    between atoms: _562  and  _565
REMARK  234  A    between atoms: _565  and  _566
REMARK  235  A    between atoms: _569  and  _571
REMARK  236  A    between atoms: _571  and  _572
REMARK  237  A    between atoms: _575  and  _577
REMARK  238  A    between atoms: _577  and  _578
REMARK  239  A    between atoms: _577  and  _580
REMARK  240  A    between atoms: _580  and  _581
REMARK  241  A    between atoms: _587  and  _589
REMARK  242  A    between atoms: _589  and  _590
REMARK  243  A    between atoms: _589  and  _592
REMARK  244  A    between atoms: _592  and  _593
REMARK  245  A    between atoms: _593  and  _594
REMARK  246  A    between atoms: _597  and  _599
REMARK  247  A    between atoms: _599  and  _600
REMARK  248  A    between atoms: _599  and  _602
REMARK  249  A    between atoms: _602  and  _603
REMARK  250  A    between atoms: _605  and  _607
REMARK  251  A    between atoms: _607  and  _608
REMARK  252  A    between atoms: _607  and  _610
REMARK  253  A    between atoms: _610  and  _611
REMARK  254  A    between atoms: _621  and  _623
REMARK  255  A    between atoms: _623  and  _624
REMARK  256  A    between atoms: _623  and  _626
REMARK  257  A    between atoms: _626  and  _627
REMARK  258  A    between atoms: _629  and  _631
REMARK  259  A    between atoms: _631  and  _632
REMARK  260  A    between atoms: _631  and  _634
REMARK  261  A    between atoms: _637  and  _639
REMARK  262  A    between atoms: _639  and  _640
REMARK  263  A    between atoms: _639  and  _642
REMARK  264  A    between atoms: _642  and  _643
REMARK  265  A    between atoms: _646  and  _648
REMARK  266  A    between atoms: _648  and  _649
REMARK  267  A    between atoms: _648  and  _651
REMARK  268  A    between atoms: _651  and  _652
REMARK                            x       y       z     vdW  Elec       q    Type
REMARK                         _______ _______ _______ _____ _____    ______ ____
ROOT
ATOM      1  C   VAL A   1       5.914  -0.748  -6.358  0.00  0.00    +0.238 C 
ATOM      2  N   ASP A   2       6.146   0.028  -5.295  0.00  0.00    -0.298 N 
ATOM      3  H   ASP A   2       6.137  -0.398  -4.346  0.00  0.00    +0.150 HD
ATOM      4  O   VAL A   1       5.864  -0.309  -7.503  0.00  0.00    -0.274 OA
ENDROOT
BRANCH   1   5
ATOM      5  CA  VAL A   1       5.737  -2.249  -6.089  0.00  0.00    +0.145 C 
BRANCH   5   6
ATOM      6  CB  VAL A   1       4.337  -2.551  -5.523  0.00  0.00    +0.025 C 
ATOM      7  CG2 VAL A   1       4.070  -4.021  -5.605  0.00  0.00    +0.002 C 
ATOM      8  CG1 VAL A   1       3.261  -1.772  -6.282  0.00  0.00    +0.002 C 
ENDBRANCH   5   6
BRANCH   5   9
ATOM      9  N   VAL A   1       6.792  -2.717  -5.195  0.00  0.00    -0.238 NA
ATOM     10  H   VAL A   1       6.542  -3.213  -4.316  0.00  0.00    +0.142 HD
ENDBRANCH   5   9
ENDBRANCH   1   5
BRANCH   2  11
ATOM     11  CA  ASP A   2       6.413   1.464  -5.429  0.00  0.00    +0.148 C 
BRANCH  11  12
ATOM     12  C   ASP A   2       7.612   1.744  -6.335  0.00  0.00    +0.227 C 
ATOM     13  O   ASP A   2       7.606   2.701  -7.116  0.00  0.00    -0.286 OA
ENDBRANCH  11  12
BRANCH  11  14
ATOM     14  CB  ASP A   2       6.698   2.086  -4.052  0.00  0.00    +0.142 C 
BRANCH  14  15
ATOM     15  CG  ASP A   2       5.457   2.264  -3.229  0.00  0.00    +0.367 C 
ATOM     16  OD2 ASP A   2       5.558   2.219  -1.981  0.00  0.00    -0.246 OA
ATOM     17  OD1 ASP A   2       4.375   2.456  -3.823  0.00  0.00    -0.246 OA
ENDBRANCH  14  15
ENDBRANCH  11  14
ENDBRANCH   2  11
TORSDOF 7
REMARK  Name = ../refined-set-2016/3f8c/3f8c_pocket.pdb
REMARK  268 active torsions:
REMARK  status: ('A' for Active; 'I' for Inactive)
REMARK    1  A    between atoms: _1  and  _5
REMARK    2  A    between atoms: _5  and  _6
REMARK    3  A    between atoms: _5  and  _8
REMARK    4  A    between atoms: _8  and  _9
REMARK    5  A    between atoms: _9  and  _10
REMARK    6  A    between atoms: _14  and  _15
REMARK    7  A    between atoms: _20  and  _22
REMARK    8  A    between atoms: _22  and  _23
REMARK    9  A    between atoms: _22  and  _25
REMARK   10  A    between atoms: _25  and  _26
REMARK   11  A    between atoms: _26  and  _27
REMARK   12  A    between atoms: _29  and  _31
REMARK   13  A    between atoms: _31  and  _32
REMARK   14  A    between atoms: _31  and  _34
REMARK   15  A    between atoms: _34  and  _35
REMARK   16  A    between atoms: _35  and  _36
REMARK   17  A    between atoms: _36  and  _37
REMARK   18  A    between atoms: _46  and  _48
REMARK   19  A    between atoms: _48  and  _49
REMARK   20  A    between atoms: _52  and  _54
REMARK   21  A    between atoms: _54  and  _55
REMARK   22  A    between atoms: _54  and  _57
REMARK   23  A    between atoms: _57  and  _58
REMARK   24  A    between atoms: _58  and  _59
REMARK   25  A    between atoms: _64  and  _66
REMARK   26  A    between atoms: _66  and  _67
REMARK   27  A    between atoms: _66  and  _69
REMARK   28  A    between atoms: _69  and  _70
REMARK   29  A    between atoms: _73  and  _75
REMARK   30  A    between atoms: _75  and  _76
REMARK   31  A    between atoms: _75  and  _78
REMARK   32  A    between atoms: _78  and  _79
REMARK   33  A    between atoms: _84  and  _86
REMARK   34  A    between atoms: _86  and  _87
REMARK   35  A    between atoms: _86  and  _89
REMARK   36  A    between atoms: _92  and  _94
REMARK   37  A    between atoms: _94  and  _95
REMARK   38  A    between atoms: _94  and  _97
REMARK   39  A    between atoms: _97  and  _98
REMARK   40  A    between atoms: _101  and  _103
REMARK   41  A    between atoms: _103  and  _104
REMARK   42  A    between atoms: _103  and  _106
REMARK   43  A    between atoms: _106  and  _107
REMARK   44  A    between atoms: _110  and  _112
REMARK   45  A    between atoms: _112  and  _113
REMARK   46  A    between atoms: _112  and  _115
REMARK   47  A    between atoms: _115  and  _116
REMARK   48  A    between atoms: _121  and  _123
REMARK   49  A    between atoms: _123  and  _124
REMARK   50  A    between atoms: _123  and  _126
REMARK   51  A    between atoms: _126  and  _127
REMARK   52  A    between atoms: _127  and  _128
REMARK   53  A    between atoms: _128  and  _129
REMARK   54  A    between atoms: _129  and  _130
REMARK   55  A    between atoms: _134  and  _136
REMARK   56  A    between atoms: _136  and  _137
REMARK   57  A    between atoms: _136  and  _139
REMARK   58  A    between atoms: _139  and  _140
REMARK   59  A    between atoms: _140  and  _141
REMARK   60  A    between atoms: _141  and  _142
REMARK   61  A    between atoms: _151  and  _153
REMARK   62  A    between atoms: _153  and  _154
REMARK   63  A    between atoms: _153  and  _156
REMARK   64  A    between atoms: _156  and  _157
REMARK   65  A    between atoms: _160  and  _162
REMARK   66  A    between atoms: _162  and  _163
REMARK   67  A    between atoms: _162  and  _165
REMARK   68  A    between atoms: _165  and  _166
REMARK   69  A    between atoms: _169  and  _171
REMARK   70  A    between atoms: _171  and  _172
REMARK   71  A    between atoms: _171  and  _174
REMARK   72  A    between atoms: _174  and  _175
REMARK   73  A    between atoms: _178  and  _180
REMARK   74  A    between atoms: _180  and  _181
REMARK   75  A    between atoms: _180  and  _183
REMARK   76  A    between atoms: _183  and  _184
REMARK   77  A    between atoms: _187  and  _189
REMARK   78  A    between atoms: _189  and  _190
REMARK   79  A    between atoms: _189  and  _192
REMARK   80  A    between atoms: _192  and  _193
REMARK   81  A    between atoms: _196  and  _198
REMARK   82  A    between atoms: _198  and  _199
REMARK   83  A    between atoms: _201  and  _203
REMARK   84  A    between atoms: _203  and  _204
REMARK   85  A    between atoms: _203  and  _206
REMARK   86  A    between atoms: _206  and  _207
REMARK   87  A    between atoms: _212  and  _214
REMARK   88  A    between atoms: _214  and  _215
REMARK   89  A    between atoms: _214  and  _217
REMARK   90  A    between atoms: _217  and  _218
REMARK   91  A    between atoms: _218  and  _219
REMARK   92  A    between atoms: _222  and  _224
REMARK   93  A    between atoms: _224  and  _225
REMARK   94  A    between atoms: _224  and  _227
REMARK   95  A    between atoms: _227  and  _228
REMARK   96  A    between atoms: _233  and  _235
REMARK   97  A    between atoms: _235  and  _236
REMARK   98  A    between atoms: _235  and  _238
REMARK   99  A    between atoms: _238  and  _239
REMARK  100  A    between atoms: _239  and  _240
REMARK  101  A    between atoms: _242  and  _244
REMARK  102  A    between atoms: _244  and  _245
REMARK  103  A    between atoms: _244  and  _247
REMARK  104  A    between atoms: _247  and  _248
REMARK  105  A    between atoms: _248  and  _249
REMARK  106  A    between atoms: _249  and  _250
REMARK  107  A    between atoms: _259  and  _261
REMARK  108  A    between atoms: _261  and  _262
REMARK  109  A    between atoms: _261  and  _264
REMARK  110  A    between atoms: _264  and  _265
REMARK  111  A    between atoms: _268  and  _270
REMARK  112  A    between atoms: _270  and  _271
REMARK  113  A    between atoms: _274  and  _276
REMARK  114  A    between atoms: _276  and  _277
REMARK  115  A    between atoms: _276  and  _279
REMARK  116  A    between atoms: _279  and  _280
REMARK  117  A    between atoms: _286  and  _288
REMARK  118  A    between atoms: _288  and  _289
REMARK  119  A    between atoms: _288  and  _291
REMARK  120  A    between atoms: _291  and  _292
REMARK  121  A    between atoms: _292  and  _293
REMARK  122  A    between atoms: _296  and  _298
REMARK  123  A    between atoms: _298  and  _299
REMARK  124  A    between atoms: _298  and  _301
REMARK  125  A    between atoms: _301  and  _302
REMARK  126  A    between atoms: _304  and  _306
REMARK  127  A    between atoms: _306  and  _307
REMARK  128  A    between atoms: _306  and  _309
REMARK  129  A    between atoms: _309  and  _310
REMARK  130  A    between atoms: _320  and  _322
REMARK  131  A    between atoms: _322  and  _323
REMARK  132  A    between atoms: _322  and  _325
REMARK  133  A    between atoms: _325  and  _326
REMARK  134  A    between atoms: _328  and  _330
REMARK  135  A    between atoms: _330  and  _331
REMARK  136  A    between atoms: _330  and  _333
REMARK  137  A    between atoms: _336  and  _338
REMARK  138  A    between atoms: _338  and  _339
REMARK  139  A    between atoms: _338  and  _341
REMARK  140  A    between atoms: _341  and  _342
REMARK  141  A    between atoms: _345  and  _347
REMARK  142  A    between atoms: _347  and  _348
REMARK  143  A    between atoms: _347  and  _350
REMARK  144  A    between atoms: _350  and  _351
REMARK  145  A    between atoms: _354  and  _358
REMARK  146  A    between atoms: _358  and  _359
REMARK  147  A    between atoms: _358  and  _361
REMARK  148  A    between atoms: _361  and  _362
REMARK  149  A    between atoms: _362  and  _363
REMARK  150  A    between atoms: _367  and  _368
REMARK  151  A    between atoms: _373  and  _375
REMARK  152  A    between atoms: _375  and  _376
REMARK  153  A    between atoms: _375  and  _378
REMARK  154  A    between atoms: _378  and  _379
REMARK  155  A    between atoms: _379  and  _380
REMARK  156  A    between atoms: _382  and  _384
REMARK  157  A    between atoms: _384  and  _385
REMARK  158  A    between atoms: _388  and  _390
REMARK  159  A    between atoms: _390  and  _391
REMARK  160  A    between atoms: _390  and  _393
REMARK  161  A    between atoms: _393  and  _394
REMARK  162  A    between atoms: _394  and  _395
REMARK  163  A    between atoms: _400  and  _402
REMARK  164  A    between atoms: _402  and  _403
REMARK  165  A    between atoms: _402  and  _405
REMARK  166  A    between atoms: _405  and  _406
REMARK  167  A    between atoms: _411  and  _413
REMARK  168  A    between atoms: _413  and  _414
REMARK  169  A    between atoms: _413  and  _416
REMARK  170  A    between atoms: _419  and  _421
REMARK  171  A    between atoms: _421  and  _422
REMARK  172  A    between atoms: _421  and  _424
REMARK  173  A    between atoms: _424  and  _425
REMARK  174  A    between atoms: _428  and  _430
REMARK  175  A    between atoms: _430  and  _431
REMARK  176  A    between atoms: _430  and  _433
REMARK  177  A    between atoms: _433  and  _434
REMARK  178  A    between atoms: _437  and  _439
REMARK  179  A    between atoms: _439  and  _440
REMARK  180  A    between atoms: _439  and  _442
REMARK  181  A    between atoms: _442  and  _443
REMARK  182  A    between atoms: _448  and  _450
REMARK  183  A    between atoms: _450  and  _451
REMARK  184  A    between atoms: _450  and  _453
REMARK  185  A    between atoms: _453  and  _454
REMARK  186  A    between atoms: _454  and  _455
REMARK  187  A    between atoms: _455  and  _456
REMARK  188  A    between atoms: _456  and  _457
REMARK  189  A    between atoms: _461  and  _463
REMARK  190  A    between atoms: _463  and  _464
REMARK  191  A    between atoms: _463  and  _466
REMARK  192  A    between atoms: _466  and  _467
REMARK  193  A    between atoms: _470  and  _472
REMARK  194  A    between atoms: _472  and  _473
REMARK  195  A    between atoms: _472  and  _475
REMARK  196  A    between atoms: _475  and  _476
REMARK  197  A    between atoms: _479  and  _481
REMARK  198  A    between atoms: _481  and  _482
REMARK  199  A    between atoms: _481  and  _484
REMARK  200  A    between atoms: _484  and  _485
REMARK  201  A    between atoms: _488  and  _490
REMARK  202  A    between atoms: _490  and  _491
REMARK  203  A    between atoms: _490  and  _493
REMARK  204  A    between atoms: _493  and  _494
REMARK  205  A    between atoms: _497  and  _499
REMARK  206  A    between atoms: _499  and  _500
REMARK  207  A    between atoms: _502  and  _504
REMARK  208  A    between atoms: _504  and  _505
REMARK  209  A    between atoms: _504  and  _507
REMARK  210  A    between atoms: _507  and  _508
REMARK  211  A    between atoms: _513  and  _515
REMARK  212  A    between atoms: _515  and  _516
REMARK  213  A    between atoms: _515  and  _518
REMARK  214  A    between atoms: _518  and  _519
REMARK  215  A    between atoms: _519  and  _520
REMARK  216  A    between atoms: _523  and  _525
REMARK  217  A    between atoms: _525  and  _526
REMARK  218  A    between atoms: _525  and  _528
REMARK  219  A    between atoms: _528  and  _529
REMARK  220  A    between atoms: _534  and  _536
REMARK  221  A    between atoms: _536  and  _537
REMARK  222  A    between atoms: _536  and  _539
REMARK  223  A    between atoms: _539  and  _540
REMARK  224  A    between atoms: _540  and  _541
REMARK  225  A    between atoms: _543  and  _545
REMARK  226  A    between atoms: _545  and  _546
REMARK  227  A    between atoms: _545  and  _548
REMARK  228  A    between atoms: _548  and  _549
REMARK  229  A    between atoms: _549  and  _550
REMARK  230  A    between atoms: _550  and  _551
REMARK  231  A    between atoms: _560  and  _562
REMARK  232  A    between atoms: _562  and  _563
REMARK  233  A    between atoms: _562  and  _565
REMARK  234  A    between atoms: _565  and  _566
REMARK  235  A    between atoms: _569  and  _571
REMARK  236  A    between atoms: _571  and  _572
REMARK  237  A    between atoms: _575  and  _577
REMARK  238  A    between atoms: _577  and  _578
REMARK  239  A    between atoms: _577  and  _580
REMARK  240  A    between atoms: _580  and  _581
REMARK  241  A    between atoms: _587  and  _589
REMARK  242  A    between atoms: _589  and  _590
REMARK  243  A    between atoms: _589  and  _592
REMARK  244  A    between atoms: _592  and  _593
REMARK  245  A    between atoms: _593  and  _594
REMARK  246  A    between atoms: _597  and  _599
REMARK  247  A    between atoms: _599  and  _600
REMARK  248  A    between atoms: _599  and  _602
REMARK  249  A    between atoms: _602  and  _603
REMARK  250  A    between atoms: _605  and  _607
REMARK  251  A    between atoms: _607  and  _608
REMARK  252  A    between atoms: _607  and  _610
REMARK  253  A    between atoms: _610  and  _611
REMARK  254  A    between atoms: _621  and  _623
REMARK  255  A    between atoms: _623  and  _624
REMARK  256  A    between atoms: _623  and  _626
REMARK  257  A    between atoms: _626  and  _627
REMARK  258  A    between atoms: _629  and  _631
REMARK  259  A    between atoms: _631  and  _632
REMARK  260  A    between atoms: _631  and  _634
REMARK  261  A    between atoms: _637  and  _639
REMARK  262  A    between atoms: _639  and  _640
REMARK  263  A    between atoms: _639  and  _642
REMARK  264  A    between atoms: _642  and  _643
REMARK  265  A    between atoms: _646  and  _648
REMARK  266  A    between atoms: _648  and  _649
REMARK  267  A    between atoms: _648  and  _651
REMARK  268  A    between atoms: _651  and  _652
REMARK                            x       y       z     vdW  Elec       q    Type
REMARK                         _______ _______ _______ _____ _____    ______ ____
ROOT
ATOM      1  CA  ILE A   1       5.830   2.163 -10.521  0.00  0.00    +0.133 C 
ENDROOT
BRANCH   1   2
ATOM      2  N   ILE A   1       6.626   1.023 -10.006  0.00  0.00    -0.239 NA
ATOM      3  H   ILE A   1       6.420   0.648  -9.058  0.00  0.00    +0.142 HD
ENDBRANCH   1   2
BRANCH   1   4
ATOM      4  CB  ILE A   1       4.778   2.592  -9.499  0.00  0.00    +0.023 C 
ATOM      5  CG2 ILE A   1       4.186   3.970  -9.849  0.00  0.00    +0.002 C 
BRANCH   4   6
ATOM      6  CG1 ILE A   1       3.701   1.522  -9.362  0.00  0.00    +0.002 C 
ATOM      7  CD1 ILE A   1       2.801   1.738  -8.121  0.00  0.00    +0.000 C 
ENDBRANCH   4   6
ENDBRANCH   1   4
BRANCH   1   8
ATOM      8  C   ILE A   1       6.739   3.364 -10.835  0.00  0.00    +0.224 C 
ATOM      9  O   ILE A   1       6.705   3.924 -11.929  0.00  0.00    -0.287 OA
ENDBRANCH   1   8
TORSDOF 4
REMARK  Name = ../refined-set-2016/3f8c/3f8c_pocket.pdb
REMARK  268 active torsions:
REMARK  status: ('A' for Active; 'I' for Inactive)
REMARK    1  A    between atoms: _1  and  _5
REMARK    2  A    between atoms: _5  and  _6
REMARK    3  A    between atoms: _5  and  _8
REMARK    4  A    between atoms: _8  and  _9
REMARK    5  A    between atoms: _9  and  _10
REMARK    6  A    between atoms: _14  and  _15
REMARK    7  A    between atoms: _20  and  _22
REMARK    8  A    between atoms: _22  and  _23
REMARK    9  A    between atoms: _22  and  _25
REMARK   10  A    between atoms: _25  and  _26
REMARK   11  A    between atoms: _26  and  _27
REMARK   12  A    between atoms: _29  and  _31
REMARK   13  A    between atoms: _31  and  _32
REMARK   14  A    between atoms: _31  and  _34
REMARK   15  A    between atoms: _34  and  _35
REMARK   16  A    between atoms: _35  and  _36
REMARK   17  A    between atoms: _36  and  _37
REMARK   18  A    between atoms: _46  and  _48
REMARK   19  A    between atoms: _48  and  _49
REMARK   20  A    between atoms: _52  and  _54
REMARK   21  A    between atoms: _54  and  _55
REMARK   22  A    between atoms: _54  and  _57
REMARK   23  A    between atoms: _57  and  _58
REMARK   24  A    between atoms: _58  and  _59
REMARK   25  A    between atoms: _64  and  _66
REMARK   26  A    between atoms: _66  and  _67
REMARK   27  A    between atoms: _66  and  _69
REMARK   28  A    between atoms: _69  and  _70
REMARK   29  A    between atoms: _73  and  _75
REMARK   30  A    between atoms: _75  and  _76
REMARK   31  A    between atoms: _75  and  _78
REMARK   32  A    between atoms: _78  and  _79
REMARK   33  A    between atoms: _84  and  _86
REMARK   34  A    between atoms: _86  and  _87
REMARK   35  A    between atoms: _86  and  _89
REMARK   36  A    between atoms: _92  and  _94
REMARK   37  A    between atoms: _94  and  _95
REMARK   38  A    between atoms: _94  and  _97
REMARK   39  A    between atoms: _97  and  _98
REMARK   40  A    between atoms: _101  and  _103
REMARK   41  A    between atoms: _103  and  _104
REMARK   42  A    between atoms: _103  and  _106
REMARK   43  A    between atoms: _106  and  _107
REMARK   44  A    between atoms: _110  and  _112
REMARK   45  A    between atoms: _112  and  _113
REMARK   46  A    between atoms: _112  and  _115
REMARK   47  A    between atoms: _115  and  _116
REMARK   48  A    between atoms: _121  and  _123
REMARK   49  A    between atoms: _123  and  _124
REMARK   50  A    between atoms: _123  and  _126
REMARK   51  A    between atoms: _126  and  _127
REMARK   52  A    between atoms: _127  and  _128
REMARK   53  A    between atoms: _128  and  _129
REMARK   54  A    between atoms: _129  and  _130
REMARK   55  A    between atoms: _134  and  _136
REMARK   56  A    between atoms: _136  and  _137
REMARK   57  A    between atoms: _136  and  _139
REMARK   58  A    between atoms: _139  and  _140
REMARK   59  A    between atoms: _140  and  _141
REMARK   60  A    between atoms: _141  and  _142
REMARK   61  A    between atoms: _151  and  _153
REMARK   62  A    between atoms: _153  and  _154
REMARK   63  A    between atoms: _153  and  _156
REMARK   64  A    between atoms: _156  and  _157
REMARK   65  A    between atoms: _160  and  _162
REMARK   66  A    between atoms: _162  and  _163
REMARK   67  A    between atoms: _162  and  _165
REMARK   68  A    between atoms: _165  and  _166
REMARK   69  A    between atoms: _169  and  _171
REMARK   70  A    between atoms: _171  and  _172
REMARK   71  A    between atoms: _171  and  _174
REMARK   72  A    between atoms: _174  and  _175
REMARK   73  A    between atoms: _178  and  _180
REMARK   74  A    between atoms: _180  and  _181
REMARK   75  A    between atoms: _180  and  _183
REMARK   76  A    between atoms: _183  and  _184
REMARK   77  A    between atoms: _187  and  _189
REMARK   78  A    between atoms: _189  and  _190
REMARK   79  A    between atoms: _189  and  _192
REMARK   80  A    between atoms: _192  and  _193
REMARK   81  A    between atoms: _196  and  _198
REMARK   82  A    between atoms: _198  and  _199
REMARK   83  A    between atoms: _201  and  _203
REMARK   84  A    between atoms: _203  and  _204
REMARK   85  A    between atoms: _203  and  _206
REMARK   86  A    between atoms: _206  and  _207
REMARK   87  A    between atoms: _212  and  _214
REMARK   88  A    between atoms: _214  and  _215
REMARK   89  A    between atoms: _214  and  _217
REMARK   90  A    between atoms: _217  and  _218
REMARK   91  A    between atoms: _218  and  _219
REMARK   92  A    between atoms: _222  and  _224
REMARK   93  A    between atoms: _224  and  _225
REMARK   94  A    between atoms: _224  and  _227
REMARK   95  A    between atoms: _227  and  _228
REMARK   96  A    between atoms: _233  and  _235
REMARK   97  A    between atoms: _235  and  _236
REMARK   98  A    between atoms: _235  and  _238
REMARK   99  A    between atoms: _238  and  _239
REMARK  100  A    between atoms: _239  and  _240
REMARK  101  A    between atoms: _242  and  _244
REMARK  102  A    between atoms: _244  and  _245
REMARK  103  A    between atoms: _244  and  _247
REMARK  104  A    between atoms: _247  and  _248
REMARK  105  A    between atoms: _248  and  _249
REMARK  106  A    between atoms: _249  and  _250
REMARK  107  A    between atoms: _259  and  _261
REMARK  108  A    between atoms: _261  and  _262
REMARK  109  A    between atoms: _261  and  _264
REMARK  110  A    between atoms: _264  and  _265
REMARK  111  A    between atoms: _268  and  _270
REMARK  112  A    between atoms: _270  and  _271
REMARK  113  A    between atoms: _274  and  _276
REMARK  114  A    between atoms: _276  and  _277
REMARK  115  A    between atoms: _276  and  _279
REMARK  116  A    between atoms: _279  and  _280
REMARK  117  A    between atoms: _286  and  _288
REMARK  118  A    between atoms: _288  and  _289
REMARK  119  A    between atoms: _288  and  _291
REMARK  120  A    between atoms: _291  and  _292
REMARK  121  A    between atoms: _292  and  _293
REMARK  122  A    between atoms: _296  and  _298
REMARK  123  A    between atoms: _298  and  _299
REMARK  124  A    between atoms: _298  and  _301
REMARK  125  A    between atoms: _301  and  _302
REMARK  126  A    between atoms: _304  and  _306
REMARK  127  A    between atoms: _306  and  _307
REMARK  128  A    between atoms: _306  and  _309
REMARK  129  A    between atoms: _309  and  _310
REMARK  130  A    between atoms: _320  and  _322
REMARK  131  A    between atoms: _322  and  _323
REMARK  132  A    between atoms: _322  and  _325
REMARK  133  A    between atoms: _325  and  _326
REMARK  134  A    between atoms: _328  and  _330
REMARK  135  A    between atoms: _330  and  _331
REMARK  136  A    between atoms: _330  and  _333
REMARK  137  A    between atoms: _336  and  _338
REMARK  138  A    between atoms: _338  and  _339
REMARK  139  A    between atoms: _338  and  _341
REMARK  140  A    between atoms: _341  and  _342
REMARK  141  A    between atoms: _345  and  _347
REMARK  142  A    between atoms: _347  and  _348
REMARK  143  A    between atoms: _347  and  _350
REMARK  144  A    between atoms: _350  and  _351
REMARK  145  A    between atoms: _354  and  _358
REMARK  146  A    between atoms: _358  and  _359
REMARK  147  A    between atoms: _358  and  _361
REMARK  148  A    between atoms: _361  and  _362
REMARK  149  A    between atoms: _362  and  _363
REMARK  150  A    between atoms: _367  and  _368
REMARK  151  A    between atoms: _373  and  _375
REMARK  152  A    between atoms: _375  and  _376
REMARK  153  A    between atoms: _375  and  _378
REMARK  154  A    between atoms: _378  and  _379
REMARK  155  A    between atoms: _379  and  _380
REMARK  156  A    between atoms: _382  and  _384
REMARK  157  A    between atoms: _384  and  _385
REMARK  158  A    between atoms: _388  and  _390
REMARK  159  A    between atoms: _390  and  _391
REMARK  160  A    between atoms: _390  and  _393
REMARK  161  A    between atoms: _393  and  _394
REMARK  162  A    between atoms: _394  and  _395
REMARK  163  A    between atoms: _400  and  _402
REMARK  164  A    between atoms: _402  and  _403
REMARK  165  A    between atoms: _402  and  _405
REMARK  166  A    between atoms: _405  and  _406
REMARK  167  A    between atoms: _411  and  _413
REMARK  168  A    between atoms: _413  and  _414
REMARK  169  A    between atoms: _413  and  _416
REMARK  170  A    between atoms: _419  and  _421
REMARK  171  A    between atoms: _421  and  _422
REMARK  172  A    between atoms: _421  and  _424
REMARK  173  A    between atoms: _424  and  _425
REMARK  174  A    between atoms: _428  and  _430
REMARK  175  A    between atoms: _430  and  _431
REMARK  176  A    between atoms: _430  and  _433
REMARK  177  A    between atoms: _433  and  _434
REMARK  178  A    between atoms: _437  and  _439
REMARK  179  A    between atoms: _439  and  _440
REMARK  180  A    between atoms: _439  and  _442
REMARK  181  A    between atoms: _442  and  _443
REMARK  182  A    between atoms: _448  and  _450
REMARK  183  A    between atoms: _450  and  _451
REMARK  184  A    between atoms: _450  and  _453
REMARK  185  A    between atoms: _453  and  _454
REMARK  186  A    between atoms: _454  and  _455
REMARK  187  A    between atoms: _455  and  _456
REMARK  188  A    between atoms: _456  and  _457
REMARK  189  A    between atoms: _461  and  _463
REMARK  190  A    between atoms: _463  and  _464
REMARK  191  A    between atoms: _463  and  _466
REMARK  192  A    between atoms: _466  and  _467
REMARK  193  A    between atoms: _470  and  _472
REMARK  194  A    between atoms: _472  and  _473
REMARK  195  A    between atoms: _472  and  _475
REMARK  196  A    between atoms: _475  and  _476
REMARK  197  A    between atoms: _479  and  _481
REMARK  198  A    between atoms: _481  and  _482
REMARK  199  A    between atoms: _481  and  _484
REMARK  200  A    between atoms: _484  and  _485
REMARK  201  A    between atoms: _488  and  _490
REMARK  202  A    between atoms: _490  and  _491
REMARK  203  A    between atoms: _490  and  _493
REMARK  204  A    between atoms: _493  and  _494
REMARK  205  A    between atoms: _497  and  _499
REMARK  206  A    between atoms: _499  and  _500
REMARK  207  A    between atoms: _502  and  _504
REMARK  208  A    between atoms: _504  and  _505
REMARK  209  A    between atoms: _504  and  _507
REMARK  210  A    between atoms: _507  and  _508
REMARK  211  A    between atoms: _513  and  _515
REMARK  212  A    between atoms: _515  and  _516
REMARK  213  A    between atoms: _515  and  _518
REMARK  214  A    between atoms: _518  and  _519
REMARK  215  A    between atoms: _519  and  _520
REMARK  216  A    between atoms: _523  and  _525
REMARK  217  A    between atoms: _525  and  _526
REMARK  218  A    between atoms: _525  and  _528
REMARK  219  A    between atoms: _528  and  _529
REMARK  220  A    between atoms: _534  and  _536
REMARK  221  A    between atoms: _536  and  _537
REMARK  222  A    between atoms: _536  and  _539
REMARK  223  A    between atoms: _539  and  _540
REMARK  224  A    between atoms: _540  and  _541
REMARK  225  A    between atoms: _543  and  _545
REMARK  226  A    between atoms: _545  and  _546
REMARK  227  A    between atoms: _545  and  _548
REMARK  228  A    between atoms: _548  and  _549
REMARK  229  A    between atoms: _549  and  _550
REMARK  230  A    between atoms: _550  and  _551
REMARK  231  A    between atoms: _560  and  _562
REMARK  232  A    between atoms: _562  and  _563
REMARK  233  A    between atoms: _562  and  _565
REMARK  234  A    between atoms: _565  and  _566
REMARK  235  A    between atoms: _569  and  _571
REMARK  236  A    between atoms: _571  and  _572
REMARK  237  A    between atoms: _575  and  _577
REMARK  238  A    between atoms: _577  and  _578
REMARK  239  A    between atoms: _577  and  _580
REMARK  240  A    between atoms: _580  and  _581
REMARK  241  A    between atoms: _587  and  _589
REMARK  242  A    between atoms: _589  and  _590
REMARK  243  A    between atoms: _589  and  _592
REMARK  244  A    between atoms: _592  and  _593
REMARK  245  A    between atoms: _593  and  _594
REMARK  246  A    between atoms: _597  and  _599
REMARK  247  A    between atoms: _599  and  _600
REMARK  248  A    between atoms: _599  and  _602
REMARK  249  A    between atoms: _602  and  _603
REMARK  250  A    between atoms: _605  and  _607
REMARK  251  A    between atoms: _607  and  _608
REMARK  252  A    between atoms: _607  and  _610
REMARK  253  A    between atoms: _610  and  _611
REMARK  254  A    between atoms: _621  and  _623
REMARK  255  A    between atoms: _623  and  _624
REMARK  256  A    between atoms: _623  and  _626
REMARK  257  A    between atoms: _626  and  _627
REMARK  258  A    between atoms: _629  and  _631
REMARK  259  A    between atoms: _631  and  _632
REMARK  260  A    between atoms: _631  and  _634
REMARK  261  A    between atoms: _637  and  _639
REMARK  262  A    between atoms: _639  and  _640
REMARK  263  A    between atoms: _639  and  _642
REMARK  264  A    between atoms: _642  and  _643
REMARK  265  A    between atoms: _646  and  _648
REMARK  266  A    between atoms: _648  and  _649
REMARK  267  A    between atoms: _648  and  _651
REMARK  268  A    between atoms: _651  and  _652
REMARK                            x       y       z     vdW  Elec       q    Type
REMARK                         _______ _______ _______ _____ _____    ______ ____
ROOT
ATOM      1  O   HOH     1     -10.404   2.432  -4.881  0.00  0.00    +0.000 OA
ENDROOT
TORSDOF 0
REMARK  Name = ../refined-set-2016/3f8c/3f8c_pocket.pdb
REMARK  268 active torsions:
REMARK  status: ('A' for Active; 'I' for Inactive)
REMARK    1  A    between atoms: _1  and  _5
REMARK    2  A    between atoms: _5  and  _6
REMARK    3  A    between atoms: _5  and  _8
REMARK    4  A    between atoms: _8  and  _9
REMARK    5  A    between atoms: _9  and  _10
REMARK    6  A    between atoms: _14  and  _15
REMARK    7  A    between atoms: _20  and  _22
REMARK    8  A    between atoms: _22  and  _23
REMARK    9  A    between atoms: _22  and  _25
REMARK   10  A    between atoms: _25  and  _26
REMARK   11  A    between atoms: _26  and  _27
REMARK   12  A    between atoms: _29  and  _31
REMARK   13  A    between atoms: _31  and  _32
REMARK   14  A    between atoms: _31  and  _34
REMARK   15  A    between atoms: _34  and  _35
REMARK   16  A    between atoms: _35  and  _36
REMARK   17  A    between atoms: _36  and  _37
REMARK   18  A    between atoms: _46  and  _48
REMARK   19  A    between atoms: _48  and  _49
REMARK   20  A    between atoms: _52  and  _54
REMARK   21  A    between atoms: _54  and  _55
REMARK   22  A    between atoms: _54  and  _57
REMARK   23  A    between atoms: _57  and  _58
REMARK   24  A    between atoms: _58  and  _59
REMARK   25  A    between atoms: _64  and  _66
REMARK   26  A    between atoms: _66  and  _67
REMARK   27  A    between atoms: _66  and  _69
REMARK   28  A    between atoms: _69  and  _70
REMARK   29  A    between atoms: _73  and  _75
REMARK   30  A    between atoms: _75  and  _76
REMARK   31  A    between atoms: _75  and  _78
REMARK   32  A    between atoms: _78  and  _79
REMARK   33  A    between atoms: _84  and  _86
REMARK   34  A    between atoms: _86  and  _87
REMARK   35  A    between atoms: _86  and  _89
REMARK   36  A    between atoms: _92  and  _94
REMARK   37  A    between atoms: _94  and  _95
REMARK   38  A    between atoms: _94  and  _97
REMARK   39  A    between atoms: _97  and  _98
REMARK   40  A    between atoms: _101  and  _103
REMARK   41  A    between atoms: _103  and  _104
REMARK   42  A    between atoms: _103  and  _106
REMARK   43  A    between atoms: _106  and  _107
REMARK   44  A    between atoms: _110  and  _112
REMARK   45  A    between atoms: _112  and  _113
REMARK   46  A    between atoms: _112  and  _115
REMARK   47  A    between atoms: _115  and  _116
REMARK   48  A    between atoms: _121  and  _123
REMARK   49  A    between atoms: _123  and  _124
REMARK   50  A    between atoms: _123  and  _126
REMARK   51  A    between atoms: _126  and  _127
REMARK   52  A    between atoms: _127  and  _128
REMARK   53  A    between atoms: _128  and  _129
REMARK   54  A    between atoms: _129  and  _130
REMARK   55  A    between atoms: _134  and  _136
REMARK   56  A    between atoms: _136  and  _137
REMARK   57  A    between atoms: _136  and  _139
REMARK   58  A    between atoms: _139  and  _140
REMARK   59  A    between atoms: _140  and  _141
REMARK   60  A    between atoms: _141  and  _142
REMARK   61  A    between atoms: _151  and  _153
REMARK   62  A    between atoms: _153  and  _154
REMARK   63  A    between atoms: _153  and  _156
REMARK   64  A    between atoms: _156  and  _157
REMARK   65  A    between atoms: _160  and  _162
REMARK   66  A    between atoms: _162  and  _163
REMARK   67  A    between atoms: _162  and  _165
REMARK   68  A    between atoms: _165  and  _166
REMARK   69  A    between atoms: _169  and  _171
REMARK   70  A    between atoms: _171  and  _172
REMARK   71  A    between atoms: _171  and  _174
REMARK   72  A    between atoms: _174  and  _175
REMARK   73  A    between atoms: _178  and  _180
REMARK   74  A    between atoms: _180  and  _181
REMARK   75  A    between atoms: _180  and  _183
REMARK   76  A    between atoms: _183  and  _184
REMARK   77  A    between atoms: _187  and  _189
REMARK   78  A    between atoms: _189  and  _190
REMARK   79  A    between atoms: _189  and  _192
REMARK   80  A    between atoms: _192  and  _193
REMARK   81  A    between atoms: _196  and  _198
REMARK   82  A    between atoms: _198  and  _199
REMARK   83  A    between atoms: _201  and  _203
REMARK   84  A    between atoms: _203  and  _204
REMARK   85  A    between atoms: _203  and  _206
REMARK   86  A    between atoms: _206  and  _207
REMARK   87  A    between atoms: _212  and  _214
REMARK   88  A    between atoms: _214  and  _215
REMARK   89  A    between atoms: _214  and  _217
REMARK   90  A    between atoms: _217  and  _218
REMARK   91  A    between atoms: _218  and  _219
REMARK   92  A    between atoms: _222  and  _224
REMARK   93  A    between atoms: _224  and  _225
REMARK   94  A    between atoms: _224  and  _227
REMARK   95  A    between atoms: _227  and  _228
REMARK   96  A    between atoms: _233  and  _235
REMARK   97  A    between atoms: _235  and  _236
REMARK   98  A    between atoms: _235  and  _238
REMARK   99  A    between atoms: _238  and  _239
REMARK  100  A    between atoms: _239  and  _240
REMARK  101  A    between atoms: _242  and  _244
REMARK  102  A    between atoms: _244  and  _245
REMARK  103  A    between atoms: _244  and  _247
REMARK  104  A    between atoms: _247  and  _248
REMARK  105  A    between atoms: _248  and  _249
REMARK  106  A    between atoms: _249  and  _250
REMARK  107  A    between atoms: _259  and  _261
REMARK  108  A    between atoms: _261  and  _262
REMARK  109  A    between atoms: _261  and  _264
REMARK  110  A    between atoms: _264  and  _265
REMARK  111  A    between atoms: _268  and  _270
REMARK  112  A    between atoms: _270  and  _271
REMARK  113  A    between atoms: _274  and  _276
REMARK  114  A    between atoms: _276  and  _277
REMARK  115  A    between atoms: _276  and  _279
REMARK  116  A    between atoms: _279  and  _280
REMARK  117  A    between atoms: _286  and  _288
REMARK  118  A    between atoms: _288  and  _289
REMARK  119  A    between atoms: _288  and  _291
REMARK  120  A    between atoms: _291  and  _292
REMARK  121  A    between atoms: _292  and  _293
REMARK  122  A    between atoms: _296  and  _298
REMARK  123  A    between atoms: _298  and  _299
REMARK  124  A    between atoms: _298  and  _301
REMARK  125  A    between atoms: _301  and  _302
REMARK  126  A    between atoms: _304  and  _306
REMARK  127  A    between atoms: _306  and  _307
REMARK  128  A    between atoms: _306  and  _309
REMARK  129  A    between atoms: _309  and  _310
REMARK  130  A    between atoms: _320  and  _322
REMARK  131  A    between atoms: _322  and  _323
REMARK  132  A    between atoms: _322  and  _325
REMARK  133  A    between atoms: _325  and  _326
REMARK  134  A    between atoms: _328  and  _330
REMARK  135  A    between atoms: _330  and  _331
REMARK  136  A    between atoms: _330  and  _333
REMARK  137  A    between atoms: _336  and  _338
REMARK  138  A    between atoms: _338  and  _339
REMARK  139  A    between atoms: _338  and  _341
REMARK  140  A    between atoms: _341  and  _342
REMARK  141  A    between atoms: _345  and  _347
REMARK  142  A    between atoms: _347  and  _348
REMARK  143  A    between atoms: _347  and  _350
REMARK  144  A    between atoms: _350  and  _351
REMARK  145  A    between atoms: _354  and  _358
REMARK  146  A    between atoms: _358  and  _359
REMARK  147  A    between atoms: _358  and  _361
REMARK  148  A    between atoms: _361  and  _362
REMARK  149  A    between atoms: _362  and  _363
REMARK  150  A    between atoms: _367  and  _368
REMARK  151  A    between atoms: _373  and  _375
REMARK  152  A    between atoms: _375  and  _376
REMARK  153  A    between atoms: _375  and  _378
REMARK  154  A    between atoms: _378  and  _379
REMARK  155  A    between atoms: _379  and  _380
REMARK  156  A    between atoms: _382  and  _384
REMARK  157  A    between atoms: _384  and  _385
REMARK  158  A    between atoms: _388  and  _390
REMARK  159  A    between atoms: _390  and  _391
REMARK  160  A    between atoms: _390  and  _393
REMARK  161  A    between atoms: _393  and  _394
REMARK  162  A    between atoms: _394  and  _395
REMARK  163  A    between atoms: _400  and  _402
REMARK  164  A    between atoms: _402  and  _403
REMARK  165  A    between atoms: _402  and  _405
REMARK  166  A    between atoms: _405  and  _406
REMARK  167  A    between atoms: _411  and  _413
REMARK  168  A    between atoms: _413  and  _414
REMARK  169  A    between atoms: _413  and  _416
REMARK  170  A    between atoms: _419  and  _421
REMARK  171  A    between atoms: _421  and  _422
REMARK  172  A    between atoms: _421  and  _424
REMARK  173  A    between atoms: _424  and  _425
REMARK  174  A    between atoms: _428  and  _430
REMARK  175  A    between atoms: _430  and  _431
REMARK  176  A    between atoms: _430  and  _433
REMARK  177  A    between atoms: _433  and  _434
REMARK  178  A    between atoms: _437  and  _439
REMARK  179  A    between atoms: _439  and  _440
REMARK  180  A    between atoms: _439  and  _442
REMARK  181  A    between atoms: _442  and  _443
REMARK  182  A    between atoms: _448  and  _450
REMARK  183  A    between atoms: _450  and  _451
REMARK  184  A    between atoms: _450  and  _453
REMARK  185  A    between atoms: _453  and  _454
REMARK  186  A    between atoms: _454  and  _455
REMARK  187  A    between atoms: _455  and  _456
REMARK  188  A    between atoms: _456  and  _457
REMARK  189  A    between atoms: _461  and  _463
REMARK  190  A    between atoms: _463  and  _464
REMARK  191  A    between atoms: _463  and  _466
REMARK  192  A    between atoms: _466  and  _467
REMARK  193  A    between atoms: _470  and  _472
REMARK  194  A    between atoms: _472  and  _473
REMARK  195  A    between atoms: _472  and  _475
REMARK  196  A    between atoms: _475  and  _476
REMARK  197  A    between atoms: _479  and  _481
REMARK  198  A    between atoms: _481  and  _482
REMARK  199  A    between atoms: _481  and  _484
REMARK  200  A    between atoms: _484  and  _485
REMARK  201  A    between atoms: _488  and  _490
REMARK  202  A    between atoms: _490  and  _491
REMARK  203  A    between atoms: _490  and  _493
REMARK  204  A    between atoms: _493  and  _494
REMARK  205  A    between atoms: _497  and  _499
REMARK  206  A    between atoms: _499  and  _500
REMARK  207  A    between atoms: _502  and  _504
REMARK  208  A    between atoms: _504  and  _505
REMARK  209  A    between atoms: _504  and  _507
REMARK  210  A    between atoms: _507  and  _508
REMARK  211  A    between atoms: _513  and  _515
REMARK  212  A    between atoms: _515  and  _516
REMARK  213  A    between atoms: _515  and  _518
REMARK  214  A    between atoms: _518  and  _519
REMARK  215  A    between atoms: _519  and  _520
REMARK  216  A    between atoms: _523  and  _525
REMARK  217  A    between atoms: _525  and  _526
REMARK  218  A    between atoms: _525  and  _528
REMARK  219  A    between atoms: _528  and  _529
REMARK  220  A    between atoms: _534  and  _536
REMARK  221  A    between atoms: _536  and  _537
REMARK  222  A    between atoms: _536  and  _539
REMARK  223  A    between atoms: _539  and  _540
REMARK  224  A    between atoms: _540  and  _541
REMARK  225  A    between atoms: _543  and  _545
REMARK  226  A    between atoms: _545  and  _546
REMARK  227  A    between atoms: _545  and  _548
REMARK  228  A    between atoms: _548  and  _549
REMARK  229  A    between atoms: _549  and  _550
REMARK  230  A    between atoms: _550  and  _551
REMARK  231  A    between atoms: _560  and  _562
REMARK  232  A    between atoms: _562  and  _563
REMARK  233  A    between atoms: _562  and  _565
REMARK  234  A    between atoms: _565  and  _566
REMARK  235  A    between atoms: _569  and  _571
REMARK  236  A    between atoms: _571  and  _572
REMARK  237  A    between atoms: _575  and  _577
REMARK  238  A    between atoms: _577  and  _578
REMARK  239  A    between atoms: _577  and  _580
REMARK  240  A    between atoms: _580  and  _581
REMARK  241  A    between atoms: _587  and  _589
REMARK  242  A    between atoms: _589  and  _590
REMARK  243  A    between atoms: _589  and  _592
REMARK  244  A    between atoms: _592  and  _593
REMARK  245  A    between atoms: _593  and  _594
REMARK  246  A    between atoms: _597  and  _599
REMARK  247  A    between atoms: _599  and  _600
REMARK  248  A    between atoms: _599  and  _602
REMARK  249  A    between atoms: _602  and  _603
REMARK  250  A    between atoms: _605  and  _607
REMARK  251  A    between atoms: _607  and  _608
REMARK  252  A    between atoms: _607  and  _610
REMARK  253  A    between atoms: _610  and  _611
REMARK  254  A    between atoms: _621  and  _623
REMARK  255  A    between atoms: _623  and  _624
REMARK  256  A    between atoms: _623  and  _626
REMARK  257  A    between atoms: _626  and  _627
REMARK  258  A    between atoms: _629  and  _631
REMARK  259  A    between atoms: _631  and  _632
REMARK  260  A    between atoms: _631  and  _634
REMARK  261  A    between atoms: _637  and  _639
REMARK  262  A    between atoms: _639  and  _640
REMARK  263  A    between atoms: _639  and  _642
REMARK  264  A    between atoms: _642  and  _643
REMARK  265  A    between atoms: _646  and  _648
REMARK  266  A    between atoms: _648  and  _649
REMARK  267  A    between atoms: _648  and  _651
REMARK  268  A    between atoms: _651  and  _652
REMARK                            x       y       z     vdW  Elec       q    Type
REMARK                         _______ _______ _______ _____ _____    ______ ____
ROOT
ATOM      1  O   HOH     1       0.002   5.407  -1.725  0.00  0.00    +0.000 OA
ENDROOT
TORSDOF 0
REMARK  Name = ../refined-set-2016/3f8c/3f8c_pocket.pdb
REMARK  268 active torsions:
REMARK  status: ('A' for Active; 'I' for Inactive)
REMARK    1  A    between atoms: _1  and  _5
REMARK    2  A    between atoms: _5  and  _6
REMARK    3  A    between atoms: _5  and  _8
REMARK    4  A    between atoms: _8  and  _9
REMARK    5  A    between atoms: _9  and  _10
REMARK    6  A    between atoms: _14  and  _15
REMARK    7  A    between atoms: _20  and  _22
REMARK    8  A    between atoms: _22  and  _23
REMARK    9  A    between atoms: _22  and  _25
REMARK   10  A    between atoms: _25  and  _26
REMARK   11  A    between atoms: _26  and  _27
REMARK   12  A    between atoms: _29  and  _31
REMARK   13  A    between atoms: _31  and  _32
REMARK   14  A    between atoms: _31  and  _34
REMARK   15  A    between atoms: _34  and  _35
REMARK   16  A    between atoms: _35  and  _36
REMARK   17  A    between atoms: _36  and  _37
REMARK   18  A    between atoms: _46  and  _48
REMARK   19  A    between atoms: _48  and  _49
REMARK   20  A    between atoms: _52  and  _54
REMARK   21  A    between atoms: _54  and  _55
REMARK   22  A    between atoms: _54  and  _57
REMARK   23  A    between atoms: _57  and  _58
REMARK   24  A    between atoms: _58  and  _59
REMARK   25  A    between atoms: _64  and  _66
REMARK   26  A    between atoms: _66  and  _67
REMARK   27  A    between atoms: _66  and  _69
REMARK   28  A    between atoms: _69  and  _70
REMARK   29  A    between atoms: _73  and  _75
REMARK   30  A    between atoms: _75  and  _76
REMARK   31  A    between atoms: _75  and  _78
REMARK   32  A    between atoms: _78  and  _79
REMARK   33  A    between atoms: _84  and  _86
REMARK   34  A    between atoms: _86  and  _87
REMARK   35  A    between atoms: _86  and  _89
REMARK   36  A    between atoms: _92  and  _94
REMARK   37  A    between atoms: _94  and  _95
REMARK   38  A    between atoms: _94  and  _97
REMARK   39  A    between atoms: _97  and  _98
REMARK   40  A    between atoms: _101  and  _103
REMARK   41  A    between atoms: _103  and  _104
REMARK   42  A    between atoms: _103  and  _106
REMARK   43  A    between atoms: _106  and  _107
REMARK   44  A    between atoms: _110  and  _112
REMARK   45  A    between atoms: _112  and  _113
REMARK   46  A    between atoms: _112  and  _115
REMARK   47  A    between atoms: _115  and  _116
REMARK   48  A    between atoms: _121  and  _123
REMARK   49  A    between atoms: _123  and  _124
REMARK   50  A    between atoms: _123  and  _126
REMARK   51  A    between atoms: _126  and  _127
REMARK   52  A    between atoms: _127  and  _128
REMARK   53  A    between atoms: _128  and  _129
REMARK   54  A    between atoms: _129  and  _130
REMARK   55  A    between atoms: _134  and  _136
REMARK   56  A    between atoms: _136  and  _137
REMARK   57  A    between atoms: _136  and  _139
REMARK   58  A    between atoms: _139  and  _140
REMARK   59  A    between atoms: _140  and  _141
REMARK   60  A    between atoms: _141  and  _142
REMARK   61  A    between atoms: _151  and  _153
REMARK   62  A    between atoms: _153  and  _154
REMARK   63  A    between atoms: _153  and  _156
REMARK   64  A    between atoms: _156  and  _157
REMARK   65  A    between atoms: _160  and  _162
REMARK   66  A    between atoms: _162  and  _163
REMARK   67  A    between atoms: _162  and  _165
REMARK   68  A    between atoms: _165  and  _166
REMARK   69  A    between atoms: _169  and  _171
REMARK   70  A    between atoms: _171  and  _172
REMARK   71  A    between atoms: _171  and  _174
REMARK   72  A    between atoms: _174  and  _175
REMARK   73  A    between atoms: _178  and  _180
REMARK   74  A    between atoms: _180  and  _181
REMARK   75  A    between atoms: _180  and  _183
REMARK   76  A    between atoms: _183  and  _184
REMARK   77  A    between atoms: _187  and  _189
REMARK   78  A    between atoms: _189  and  _190
REMARK   79  A    between atoms: _189  and  _192
REMARK   80  A    between atoms: _192  and  _193
REMARK   81  A    between atoms: _196  and  _198
REMARK   82  A    between atoms: _198  and  _199
REMARK   83  A    between atoms: _201  and  _203
REMARK   84  A    between atoms: _203  and  _204
REMARK   85  A    between atoms: _203  and  _206
REMARK   86  A    between atoms: _206  and  _207
REMARK   87  A    between atoms: _212  and  _214
REMARK   88  A    between atoms: _214  and  _215
REMARK   89  A    between atoms: _214  and  _217
REMARK   90  A    between atoms: _217  and  _218
REMARK   91  A    between atoms: _218  and  _219
REMARK   92  A    between atoms: _222  and  _224
REMARK   93  A    between atoms: _224  and  _225
REMARK   94  A    between atoms: _224  and  _227
REMARK   95  A    between atoms: _227  and  _228
REMARK   96  A    between atoms: _233  and  _235
REMARK   97  A    between atoms: _235  and  _236
REMARK   98  A    between atoms: _235  and  _238
REMARK   99  A    between atoms: _238  and  _239
REMARK  100  A    between atoms: _239  and  _240
REMARK  101  A    between atoms: _242  and  _244
REMARK  102  A    between atoms: _244  and  _245
REMARK  103  A    between atoms: _244  and  _247
REMARK  104  A    between atoms: _247  and  _248
REMARK  105  A    between atoms: _248  and  _249
REMARK  106  A    between atoms: _249  and  _250
REMARK  107  A    between atoms: _259  and  _261
REMARK  108  A    between atoms: _261  and  _262
REMARK  109  A    between atoms: _261  and  _264
REMARK  110  A    between atoms: _264  and  _265
REMARK  111  A    between atoms: _268  and  _270
REMARK  112  A    between atoms: _270  and  _271
REMARK  113  A    between atoms: _274  and  _276
REMARK  114  A    between atoms: _276  and  _277
REMARK  115  A    between atoms: _276  and  _279
REMARK  116  A    between atoms: _279  and  _280
REMARK  117  A    between atoms: _286  and  _288
REMARK  118  A    between atoms: _288  and  _289
REMARK  119  A    between atoms: _288  and  _291
REMARK  120  A    between atoms: _291  and  _292
REMARK  121  A    between atoms: _292  and  _293
REMARK  122  A    between atoms: _296  and  _298
REMARK  123  A    between atoms: _298  and  _299
REMARK  124  A    between atoms: _298  and  _301
REMARK  125  A    between atoms: _301  and  _302
REMARK  126  A    between atoms: _304  and  _306
REMARK  127  A    between atoms: _306  and  _307
REMARK  128  A    between atoms: _306  and  _309
REMARK  129  A    between atoms: _309  and  _310
REMARK  130  A    between atoms: _320  and  _322
REMARK  131  A    between atoms: _322  and  _323
REMARK  132  A    between atoms: _322  and  _325
REMARK  133  A    between atoms: _325  and  _326
REMARK  134  A    between atoms: _328  and  _330
REMARK  135  A    between atoms: _330  and  _331
REMARK  136  A    between atoms: _330  and  _333
REMARK  137  A    between atoms: _336  and  _338
REMARK  138  A    between atoms: _338  and  _339
REMARK  139  A    between atoms: _338  and  _341
REMARK  140  A    between atoms: _341  and  _342
REMARK  141  A    between atoms: _345  and  _347
REMARK  142  A    between atoms: _347  and  _348
REMARK  143  A    between atoms: _347  and  _350
REMARK  144  A    between atoms: _350  and  _351
REMARK  145  A    between atoms: _354  and  _358
REMARK  146  A    between atoms: _358  and  _359
REMARK  147  A    between atoms: _358  and  _361
REMARK  148  A    between atoms: _361  and  _362
REMARK  149  A    between atoms: _362  and  _363
REMARK  150  A    between atoms: _367  and  _368
REMARK  151  A    between atoms: _373  and  _375
REMARK  152  A    between atoms: _375  and  _376
REMARK  153  A    between atoms: _375  and  _378
REMARK  154  A    between atoms: _378  and  _379
REMARK  155  A    between atoms: _379  and  _380
REMARK  156  A    between atoms: _382  and  _384
REMARK  157  A    between atoms: _384  and  _385
REMARK  158  A    between atoms: _388  and  _390
REMARK  159  A    between atoms: _390  and  _391
REMARK  160  A    between atoms: _390  and  _393
REMARK  161  A    between atoms: _393  and  _394
REMARK  162  A    between atoms: _394  and  _395
REMARK  163  A    between atoms: _400  and  _402
REMARK  164  A    between atoms: _402  and  _403
REMARK  165  A    between atoms: _402  and  _405
REMARK  166  A    between atoms: _405  and  _406
REMARK  167  A    between atoms: _411  and  _413
REMARK  168  A    between atoms: _413  and  _414
REMARK  169  A    between atoms: _413  and  _416
REMARK  170  A    between atoms: _419  and  _421
REMARK  171  A    between atoms: _421  and  _422
REMARK  172  A    between atoms: _421  and  _424
REMARK  173  A    between atoms: _424  and  _425
REMARK  174  A    between atoms: _428  and  _430
REMARK  175  A    between atoms: _430  and  _431
REMARK  176  A    between atoms: _430  and  _433
REMARK  177  A    between atoms: _433  and  _434
REMARK  178  A    between atoms: _437  and  _439
REMARK  179  A    between atoms: _439  and  _440
REMARK  180  A    between atoms: _439  and  _442
REMARK  181  A    between atoms: _442  and  _443
REMARK  182  A    between atoms: _448  and  _450
REMARK  183  A    between atoms: _450  and  _451
REMARK  184  A    between atoms: _450  and  _453
REMARK  185  A    between atoms: _453  and  _454
REMARK  186  A    between atoms: _454  and  _455
REMARK  187  A    between atoms: _455  and  _456
REMARK  188  A    between atoms: _456  and  _457
REMARK  189  A    between atoms: _461  and  _463
REMARK  190  A    between atoms: _463  and  _464
REMARK  191  A    between atoms: _463  and  _466
REMARK  192  A    between atoms: _466  and  _467
REMARK  193  A    between atoms: _470  and  _472
REMARK  194  A    between atoms: _472  and  _473
REMARK  195  A    between atoms: _472  and  _475
REMARK  196  A    between atoms: _475  and  _476
REMARK  197  A    between atoms: _479  and  _481
REMARK  198  A    between atoms: _481  and  _482
REMARK  199  A    between atoms: _481  and  _484
REMARK  200  A    between atoms: _484  and  _485
REMARK  201  A    between atoms: _488  and  _490
REMARK  202  A    between atoms: _490  and  _491
REMARK  203  A    between atoms: _490  and  _493
REMARK  204  A    between atoms: _493  and  _494
REMARK  205  A    between atoms: _497  and  _499
REMARK  206  A    between atoms: _499  and  _500
REMARK  207  A    between atoms: _502  and  _504
REMARK  208  A    between atoms: _504  and  _505
REMARK  209  A    between atoms: _504  and  _507
REMARK  210  A    between atoms: _507  and  _508
REMARK  211  A    between atoms: _513  and  _515
REMARK  212  A    between atoms: _515  and  _516
REMARK  213  A    between atoms: _515  and  _518
REMARK  214  A    between atoms: _518  and  _519
REMARK  215  A    between atoms: _519  and  _520
REMARK  216  A    between atoms: _523  and  _525
REMARK  217  A    between atoms: _525  and  _526
REMARK  218  A    between atoms: _525  and  _528
REMARK  219  A    between atoms: _528  and  _529
REMARK  220  A    between atoms: _534  and  _536
REMARK  221  A    between atoms: _536  and  _537
REMARK  222  A    between atoms: _536  and  _539
REMARK  223  A    between atoms: _539  and  _540
REMARK  224  A    between atoms: _540  and  _541
REMARK  225  A    between atoms: _543  and  _545
REMARK  226  A    between atoms: _545  and  _546
REMARK  227  A    between atoms: _545  and  _548
REMARK  228  A    between atoms: _548  and  _549
REMARK  229  A    between atoms: _549  and  _550
REMARK  230  A    between atoms: _550  and  _551
REMARK  231  A    between atoms: _560  and  _562
REMARK  232  A    between atoms: _562  and  _563
REMARK  233  A    between atoms: _562  and  _565
REMARK  234  A    between atoms: _565  and  _566
REMARK  235  A    between atoms: _569  and  _571
REMARK  236  A    between atoms: _571  and  _572
REMARK  237  A    between atoms: _575  and  _577
REMARK  238  A    between atoms: _577  and  _578
REMARK  239  A    between atoms: _577  and  _580
REMARK  240  A    between atoms: _580  and  _581
REMARK  241  A    between atoms: _587  and  _589
REMARK  242  A    between atoms: _589  and  _590
REMARK  243  A    between atoms: _589  and  _592
REMARK  244  A    between atoms: _592  and  _593
REMARK  245  A    between atoms: _593  and  _594
REMARK  246  A    between atoms: _597  and  _599
REMARK  247  A    between atoms: _599  and  _600
REMARK  248  A    between atoms: _599  and  _602
REMARK  249  A    between atoms: _602  and  _603
REMARK  250  A    between atoms: _605  and  _607
REMARK  251  A    between atoms: _607  and  _608
REMARK  252  A    between atoms: _607  and  _610
REMARK  253  A    between atoms: _610  and  _611
REMARK  254  A    between atoms: _621  and  _623
REMARK  255  A    between atoms: _623  and  _624
REMARK  256  A    between atoms: _623  and  _626
REMARK  257  A    between atoms: _626  and  _627
REMARK  258  A    between atoms: _629  and  _631
REMARK  259  A    between atoms: _631  and  _632
REMARK  260  A    between atoms: _631  and  _634
REMARK  261  A    between atoms: _637  and  _639
REMARK  262  A    between atoms: _639  and  _640
REMARK  263  A    between atoms: _639  and  _642
REMARK  264  A    between atoms: _642  and  _643
REMARK  265  A    between atoms: _646  and  _648
REMARK  266  A    between atoms: _648  and  _649
REMARK  267  A    between atoms: _648  and  _651
REMARK  268  A    between atoms: _651  and  _652
REMARK                            x       y       z     vdW  Elec       q    Type
REMARK                         _______ _______ _______ _____ _____    ______ ____
ROOT
ATOM      1  O   HOH     1      -3.436  -5.855  -0.625  0.00  0.00    +0.000 OA
ENDROOT
TORSDOF 0
REMARK  Name = ../refined-set-2016/3f8c/3f8c_pocket.pdb
REMARK  268 active torsions:
REMARK  status: ('A' for Active; 'I' for Inactive)
REMARK    1  A    between atoms: _1  and  _5
REMARK    2  A    between atoms: _5  and  _6
REMARK    3  A    between atoms: _5  and  _8
REMARK    4  A    between atoms: _8  and  _9
REMARK    5  A    between atoms: _9  and  _10
REMARK    6  A    between atoms: _14  and  _15
REMARK    7  A    between atoms: _20  and  _22
REMARK    8  A    between atoms: _22  and  _23
REMARK    9  A    between atoms: _22  and  _25
REMARK   10  A    between atoms: _25  and  _26
REMARK   11  A    between atoms: _26  and  _27
REMARK   12  A    between atoms: _29  and  _31
REMARK   13  A    between atoms: _31  and  _32
REMARK   14  A    between atoms: _31  and  _34
REMARK   15  A    between atoms: _34  and  _35
REMARK   16  A    between atoms: _35  and  _36
REMARK   17  A    between atoms: _36  and  _37
REMARK   18  A    between atoms: _46  and  _48
REMARK   19  A    between atoms: _48  and  _49
REMARK   20  A    between atoms: _52  and  _54
REMARK   21  A    between atoms: _54  and  _55
REMARK   22  A    between atoms: _54  and  _57
REMARK   23  A    between atoms: _57  and  _58
REMARK   24  A    between atoms: _58  and  _59
REMARK   25  A    between atoms: _64  and  _66
REMARK   26  A    between atoms: _66  and  _67
REMARK   27  A    between atoms: _66  and  _69
REMARK   28  A    between atoms: _69  and  _70
REMARK   29  A    between atoms: _73  and  _75
REMARK   30  A    between atoms: _75  and  _76
REMARK   31  A    between atoms: _75  and  _78
REMARK   32  A    between atoms: _78  and  _79
REMARK   33  A    between atoms: _84  and  _86
REMARK   34  A    between atoms: _86  and  _87
REMARK   35  A    between atoms: _86  and  _89
REMARK   36  A    between atoms: _92  and  _94
REMARK   37  A    between atoms: _94  and  _95
REMARK   38  A    between atoms: _94  and  _97
REMARK   39  A    between atoms: _97  and  _98
REMARK   40  A    between atoms: _101  and  _103
REMARK   41  A    between atoms: _103  and  _104
REMARK   42  A    between atoms: _103  and  _106
REMARK   43  A    between atoms: _106  and  _107
REMARK   44  A    between atoms: _110  and  _112
REMARK   45  A    between atoms: _112  and  _113
REMARK   46  A    between atoms: _112  and  _115
REMARK   47  A    between atoms: _115  and  _116
REMARK   48  A    between atoms: _121  and  _123
REMARK   49  A    between atoms: _123  and  _124
REMARK   50  A    between atoms: _123  and  _126
REMARK   51  A    between atoms: _126  and  _127
REMARK   52  A    between atoms: _127  and  _128
REMARK   53  A    between atoms: _128  and  _129
REMARK   54  A    between atoms: _129  and  _130
REMARK   55  A    between atoms: _134  and  _136
REMARK   56  A    between atoms: _136  and  _137
REMARK   57  A    between atoms: _136  and  _139
REMARK   58  A    between atoms: _139  and  _140
REMARK   59  A    between atoms: _140  and  _141
REMARK   60  A    between atoms: _141  and  _142
REMARK   61  A    between atoms: _151  and  _153
REMARK   62  A    between atoms: _153  and  _154
REMARK   63  A    between atoms: _153  and  _156
REMARK   64  A    between atoms: _156  and  _157
REMARK   65  A    between atoms: _160  and  _162
REMARK   66  A    between atoms: _162  and  _163
REMARK   67  A    between atoms: _162  and  _165
REMARK   68  A    between atoms: _165  and  _166
REMARK   69  A    between atoms: _169  and  _171
REMARK   70  A    between atoms: _171  and  _172
REMARK   71  A    between atoms: _171  and  _174
REMARK   72  A    between atoms: _174  and  _175
REMARK   73  A    between atoms: _178  and  _180
REMARK   74  A    between atoms: _180  and  _181
REMARK   75  A    between atoms: _180  and  _183
REMARK   76  A    between atoms: _183  and  _184
REMARK   77  A    between atoms: _187  and  _189
REMARK   78  A    between atoms: _189  and  _190
REMARK   79  A    between atoms: _189  and  _192
REMARK   80  A    between atoms: _192  and  _193
REMARK   81  A    between atoms: _196  and  _198
REMARK   82  A    between atoms: _198  and  _199
REMARK   83  A    between atoms: _201  and  _203
REMARK   84  A    between atoms: _203  and  _204
REMARK   85  A    between atoms: _203  and  _206
REMARK   86  A    between atoms: _206  and  _207
REMARK   87  A    between atoms: _212  and  _214
REMARK   88  A    between atoms: _214  and  _215
REMARK   89  A    between atoms: _214  and  _217
REMARK   90  A    between atoms: _217  and  _218
REMARK   91  A    between atoms: _218  and  _219
REMARK   92  A    between atoms: _222  and  _224
REMARK   93  A    between atoms: _224  and  _225
REMARK   94  A    between atoms: _224  and  _227
REMARK   95  A    between atoms: _227  and  _228
REMARK   96  A    between atoms: _233  and  _235
REMARK   97  A    between atoms: _235  and  _236
REMARK   98  A    between atoms: _235  and  _238
REMARK   99  A    between atoms: _238  and  _239
REMARK  100  A    between atoms: _239  and  _240
REMARK  101  A    between atoms: _242  and  _244
REMARK  102  A    between atoms: _244  and  _245
REMARK  103  A    between atoms: _244  and  _247
REMARK  104  A    between atoms: _247  and  _248
REMARK  105  A    between atoms: _248  and  _249
REMARK  106  A    between atoms: _249  and  _250
REMARK  107  A    between atoms: _259  and  _261
REMARK  108  A    between atoms: _261  and  _262
REMARK  109  A    between atoms: _261  and  _264
REMARK  110  A    between atoms: _264  and  _265
REMARK  111  A    between atoms: _268  and  _270
REMARK  112  A    between atoms: _270  and  _271
REMARK  113  A    between atoms: _274  and  _276
REMARK  114  A    between atoms: _276  and  _277
REMARK  115  A    between atoms: _276  and  _279
REMARK  116  A    between atoms: _279  and  _280
REMARK  117  A    between atoms: _286  and  _288
REMARK  118  A    between atoms: _288  and  _289
REMARK  119  A    between atoms: _288  and  _291
REMARK  120  A    between atoms: _291  and  _292
REMARK  121  A    between atoms: _292  and  _293
REMARK  122  A    between atoms: _296  and  _298
REMARK  123  A    between atoms: _298  and  _299
REMARK  124  A    between atoms: _298  and  _301
REMARK  125  A    between atoms: _301  and  _302
REMARK  126  A    between atoms: _304  and  _306
REMARK  127  A    between atoms: _306  and  _307
REMARK  128  A    between atoms: _306  and  _309
REMARK  129  A    between atoms: _309  and  _310
REMARK  130  A    between atoms: _320  and  _322
REMARK  131  A    between atoms: _322  and  _323
REMARK  132  A    between atoms: _322  and  _325
REMARK  133  A    between atoms: _325  and  _326
REMARK  134  A    between atoms: _328  and  _330
REMARK  135  A    between atoms: _330  and  _331
REMARK  136  A    between atoms: _330  and  _333
REMARK  137  A    between atoms: _336  and  _338
REMARK  138  A    between atoms: _338  and  _339
REMARK  139  A    between atoms: _338  and  _341
REMARK  140  A    between atoms: _341  and  _342
REMARK  141  A    between atoms: _345  and  _347
REMARK  142  A    between atoms: _347  and  _348
REMARK  143  A    between atoms: _347  and  _350
REMARK  144  A    between atoms: _350  and  _351
REMARK  145  A    between atoms: _354  and  _358
REMARK  146  A    between atoms: _358  and  _359
REMARK  147  A    between atoms: _358  and  _361
REMARK  148  A    between atoms: _361  and  _362
REMARK  149  A    between atoms: _362  and  _363
REMARK  150  A    between atoms: _367  and  _368
REMARK  151  A    between atoms: _373  and  _375
REMARK  152  A    between atoms: _375  and  _376
REMARK  153  A    between atoms: _375  and  _378
REMARK  154  A    between atoms: _378  and  _379
REMARK  155  A    between atoms: _379  and  _380
REMARK  156  A    between atoms: _382  and  _384
REMARK  157  A    between atoms: _384  and  _385
REMARK  158  A    between atoms: _388  and  _390
REMARK  159  A    between atoms: _390  and  _391
REMARK  160  A    between atoms: _390  and  _393
REMARK  161  A    between atoms: _393  and  _394
REMARK  162  A    between atoms: _394  and  _395
REMARK  163  A    between atoms: _400  and  _402
REMARK  164  A    between atoms: _402  and  _403
REMARK  165  A    between atoms: _402  and  _405
REMARK  166  A    between atoms: _405  and  _406
REMARK  167  A    between atoms: _411  and  _413
REMARK  168  A    between atoms: _413  and  _414
REMARK  169  A    between atoms: _413  and  _416
REMARK  170  A    between atoms: _419  and  _421
REMARK  171  A    between atoms: _421  and  _422
REMARK  172  A    between atoms: _421  and  _424
REMARK  173  A    between atoms: _424  and  _425
REMARK  174  A    between atoms: _428  and  _430
REMARK  175  A    between atoms: _430  and  _431
REMARK  176  A    between atoms: _430  and  _433
REMARK  177  A    between atoms: _433  and  _434
REMARK  178  A    between atoms: _437  and  _439
REMARK  179  A    between atoms: _439  and  _440
REMARK  180  A    between atoms: _439  and  _442
REMARK  181  A    between atoms: _442  and  _443
REMARK  182  A    between atoms: _448  and  _450
REMARK  183  A    between atoms: _450  and  _451
REMARK  184  A    between atoms: _450  and  _453
REMARK  185  A    between atoms: _453  and  _454
REMARK  186  A    between atoms: _454  and  _455
REMARK  187  A    between atoms: _455  and  _456
REMARK  188  A    between atoms: _456  and  _457
REMARK  189  A    between atoms: _461  and  _463
REMARK  190  A    between atoms: _463  and  _464
REMARK  191  A    between atoms: _463  and  _466
REMARK  192  A    between atoms: _466  and  _467
REMARK  193  A    between atoms: _470  and  _472
REMARK  194  A    between atoms: _472  and  _473
REMARK  195  A    between atoms: _472  and  _475
REMARK  196  A    between atoms: _475  and  _476
REMARK  197  A    between atoms: _479  and  _481
REMARK  198  A    between atoms: _481  and  _482
REMARK  199  A    between atoms: _481  and  _484
REMARK  200  A    between atoms: _484  and  _485
REMARK  201  A    between atoms: _488  and  _490
REMARK  202  A    between atoms: _490  and  _491
REMARK  203  A    between atoms: _490  and  _493
REMARK  204  A    between atoms: _493  and  _494
REMARK  205  A    between atoms: _497  and  _499
REMARK  206  A    between atoms: _499  and  _500
REMARK  207  A    between atoms: _502  and  _504
REMARK  208  A    between atoms: _504  and  _505
REMARK  209  A    between atoms: _504  and  _507
REMARK  210  A    between atoms: _507  and  _508
REMARK  211  A    between atoms: _513  and  _515
REMARK  212  A    between atoms: _515  and  _516
REMARK  213  A    between atoms: _515  and  _518
REMARK  214  A    between atoms: _518  and  _519
REMARK  215  A    between atoms: _519  and  _520
REMARK  216  A    between atoms: _523  and  _525
REMARK  217  A    between atoms: _525  and  _526
REMARK  218  A    between atoms: _525  and  _528
REMARK  219  A    between atoms: _528  and  _529
REMARK  220  A    between atoms: _534  and  _536
REMARK  221  A    between atoms: _536  and  _537
REMARK  222  A    between atoms: _536  and  _539
REMARK  223  A    between atoms: _539  and  _540
REMARK  224  A    between atoms: _540  and  _541
REMARK  225  A    between atoms: _543  and  _545
REMARK  226  A    between atoms: _545  and  _546
REMARK  227  A    between atoms: _545  and  _548
REMARK  228  A    between atoms: _548  and  _549
REMARK  229  A    between atoms: _549  and  _550
REMARK  230  A    between atoms: _550  and  _551
REMARK  231  A    between atoms: _560  and  _562
REMARK  232  A    between atoms: _562  and  _563
REMARK  233  A    between atoms: _562  and  _565
REMARK  234  A    between atoms: _565  and  _566
REMARK  235  A    between atoms: _569  and  _571
REMARK  236  A    between atoms: _571  and  _572
REMARK  237  A    between atoms: _575  and  _577
REMARK  238  A    between atoms: _577  and  _578
REMARK  239  A    between atoms: _577  and  _580
REMARK  240  A    between atoms: _580  and  _581
REMARK  241  A    between atoms: _587  and  _589
REMARK  242  A    between atoms: _589  and  _590
REMARK  243  A    between atoms: _589  and  _592
REMARK  244  A    between atoms: _592  and  _593
REMARK  245  A    between atoms: _593  and  _594
REMARK  246  A    between atoms: _597  and  _599
REMARK  247  A    between atoms: _599  and  _600
REMARK  248  A    between atoms: _599  and  _602
REMARK  249  A    between atoms: _602  and  _603
REMARK  250  A    between atoms: _605  and  _607
REMARK  251  A    between atoms: _607  and  _608
REMARK  252  A    between atoms: _607  and  _610
REMARK  253  A    between atoms: _610  and  _611
REMARK  254  A    between atoms: _621  and  _623
REMARK  255  A    between atoms: _623  and  _624
REMARK  256  A    between atoms: _623  and  _626
REMARK  257  A    between atoms: _626  and  _627
REMARK  258  A    between atoms: _629  and  _631
REMARK  259  A    between atoms: _631  and  _632
REMARK  260  A    between atoms: _631  and  _634
REMARK  261  A    between atoms: _637  and  _639
REMARK  262  A    between atoms: _639  and  _640
REMARK  263  A    between atoms: _639  and  _642
REMARK  264  A    between atoms: _642  and  _643
REMARK  265  A    between atoms: _646  and  _648
REMARK  266  A    between atoms: _648  and  _649
REMARK  267  A    between atoms: _648  and  _651
REMARK  268  A    between atoms: _651  and  _652
REMARK                            x       y       z     vdW  Elec       q    Type
REMARK                         _______ _______ _______ _____ _____    ______ ____
ROOT
ATOM      1  O   HOH     1      -4.598  -3.703  -1.907  0.00  0.00    +0.000 OA
ENDROOT
TORSDOF 0
REMARK  Name = ../refined-set-2016/3f8c/3f8c_pocket.pdb
REMARK  268 active torsions:
REMARK  status: ('A' for Active; 'I' for Inactive)
REMARK    1  A    between atoms: _1  and  _5
REMARK    2  A    between atoms: _5  and  _6
REMARK    3  A    between atoms: _5  and  _8
REMARK    4  A    between atoms: _8  and  _9
REMARK    5  A    between atoms: _9  and  _10
REMARK    6  A    between atoms: _14  and  _15
REMARK    7  A    between atoms: _20  and  _22
REMARK    8  A    between atoms: _22  and  _23
REMARK    9  A    between atoms: _22  and  _25
REMARK   10  A    between atoms: _25  and  _26
REMARK   11  A    between atoms: _26  and  _27
REMARK   12  A    between atoms: _29  and  _31
REMARK   13  A    between atoms: _31  and  _32
REMARK   14  A    between atoms: _31  and  _34
REMARK   15  A    between atoms: _34  and  _35
REMARK   16  A    between atoms: _35  and  _36
REMARK   17  A    between atoms: _36  and  _37
REMARK   18  A    between atoms: _46  and  _48
REMARK   19  A    between atoms: _48  and  _49
REMARK   20  A    between atoms: _52  and  _54
REMARK   21  A    between atoms: _54  and  _55
REMARK   22  A    between atoms: _54  and  _57
REMARK   23  A    between atoms: _57  and  _58
REMARK   24  A    between atoms: _58  and  _59
REMARK   25  A    between atoms: _64  and  _66
REMARK   26  A    between atoms: _66  and  _67
REMARK   27  A    between atoms: _66  and  _69
REMARK   28  A    between atoms: _69  and  _70
REMARK   29  A    between atoms: _73  and  _75
REMARK   30  A    between atoms: _75  and  _76
REMARK   31  A    between atoms: _75  and  _78
REMARK   32  A    between atoms: _78  and  _79
REMARK   33  A    between atoms: _84  and  _86
REMARK   34  A    between atoms: _86  and  _87
REMARK   35  A    between atoms: _86  and  _89
REMARK   36  A    between atoms: _92  and  _94
REMARK   37  A    between atoms: _94  and  _95
REMARK   38  A    between atoms: _94  and  _97
REMARK   39  A    between atoms: _97  and  _98
REMARK   40  A    between atoms: _101  and  _103
REMARK   41  A    between atoms: _103  and  _104
REMARK   42  A    between atoms: _103  and  _106
REMARK   43  A    between atoms: _106  and  _107
REMARK   44  A    between atoms: _110  and  _112
REMARK   45  A    between atoms: _112  and  _113
REMARK   46  A    between atoms: _112  and  _115
REMARK   47  A    between atoms: _115  and  _116
REMARK   48  A    between atoms: _121  and  _123
REMARK   49  A    between atoms: _123  and  _124
REMARK   50  A    between atoms: _123  and  _126
REMARK   51  A    between atoms: _126  and  _127
REMARK   52  A    between atoms: _127  and  _128
REMARK   53  A    between atoms: _128  and  _129
REMARK   54  A    between atoms: _129  and  _130
REMARK   55  A    between atoms: _134  and  _136
REMARK   56  A    between atoms: _136  and  _137
REMARK   57  A    between atoms: _136  and  _139
REMARK   58  A    between atoms: _139  and  _140
REMARK   59  A    between atoms: _140  and  _141
REMARK   60  A    between atoms: _141  and  _142
REMARK   61  A    between atoms: _151  and  _153
REMARK   62  A    between atoms: _153  and  _154
REMARK   63  A    between atoms: _153  and  _156
REMARK   64  A    between atoms: _156  and  _157
REMARK   65  A    between atoms: _160  and  _162
REMARK   66  A    between atoms: _162  and  _163
REMARK   67  A    between atoms: _162  and  _165
REMARK   68  A    between atoms: _165  and  _166
REMARK   69  A    between atoms: _169  and  _171
REMARK   70  A    between atoms: _171  and  _172
REMARK   71  A    between atoms: _171  and  _174
REMARK   72  A    between atoms: _174  and  _175
REMARK   73  A    between atoms: _178  and  _180
REMARK   74  A    between atoms: _180  and  _181
REMARK   75  A    between atoms: _180  and  _183
REMARK   76  A    between atoms: _183  and  _184
REMARK   77  A    between atoms: _187  and  _189
REMARK   78  A    between atoms: _189  and  _190
REMARK   79  A    between atoms: _189  and  _192
REMARK   80  A    between atoms: _192  and  _193
REMARK   81  A    between atoms: _196  and  _198
REMARK   82  A    between atoms: _198  and  _199
REMARK   83  A    between atoms: _201  and  _203
REMARK   84  A    between atoms: _203  and  _204
REMARK   85  A    between atoms: _203  and  _206
REMARK   86  A    between atoms: _206  and  _207
REMARK   87  A    between atoms: _212  and  _214
REMARK   88  A    between atoms: _214  and  _215
REMARK   89  A    between atoms: _214  and  _217
REMARK   90  A    between atoms: _217  and  _218
REMARK   91  A    between atoms: _218  and  _219
REMARK   92  A    between atoms: _222  and  _224
REMARK   93  A    between atoms: _224  and  _225
REMARK   94  A    between atoms: _224  and  _227
REMARK   95  A    between atoms: _227  and  _228
REMARK   96  A    between atoms: _233  and  _235
REMARK   97  A    between atoms: _235  and  _236
REMARK   98  A    between atoms: _235  and  _238
REMARK   99  A    between atoms: _238  and  _239
REMARK  100  A    between atoms: _239  and  _240
REMARK  101  A    between atoms: _242  and  _244
REMARK  102  A    between atoms: _244  and  _245
REMARK  103  A    between atoms: _244  and  _247
REMARK  104  A    between atoms: _247  and  _248
REMARK  105  A    between atoms: _248  and  _249
REMARK  106  A    between atoms: _249  and  _250
REMARK  107  A    between atoms: _259  and  _261
REMARK  108  A    between atoms: _261  and  _262
REMARK  109  A    between atoms: _261  and  _264
REMARK  110  A    between atoms: _264  and  _265
REMARK  111  A    between atoms: _268  and  _270
REMARK  112  A    between atoms: _270  and  _271
REMARK  113  A    between atoms: _274  and  _276
REMARK  114  A    between atoms: _276  and  _277
REMARK  115  A    between atoms: _276  and  _279
REMARK  116  A    between atoms: _279  and  _280
REMARK  117  A    between atoms: _286  and  _288
REMARK  118  A    between atoms: _288  and  _289
REMARK  119  A    between atoms: _288  and  _291
REMARK  120  A    between atoms: _291  and  _292
REMARK  121  A    between atoms: _292  and  _293
REMARK  122  A    between atoms: _296  and  _298
REMARK  123  A    between atoms: _298  and  _299
REMARK  124  A    between atoms: _298  and  _301
REMARK  125  A    between atoms: _301  and  _302
REMARK  126  A    between atoms: _304  and  _306
REMARK  127  A    between atoms: _306  and  _307
REMARK  128  A    between atoms: _306  and  _309
REMARK  129  A    between atoms: _309  and  _310
REMARK  130  A    between atoms: _320  and  _322
REMARK  131  A    between atoms: _322  and  _323
REMARK  132  A    between atoms: _322  and  _325
REMARK  133  A    between atoms: _325  and  _326
REMARK  134  A    between atoms: _328  and  _330
REMARK  135  A    between atoms: _330  and  _331
REMARK  136  A    between atoms: _330  and  _333
REMARK  137  A    between atoms: _336  and  _338
REMARK  138  A    between atoms: _338  and  _339
REMARK  139  A    between atoms: _338  and  _341
REMARK  140  A    between atoms: _341  and  _342
REMARK  141  A    between atoms: _345  and  _347
REMARK  142  A    between atoms: _347  and  _348
REMARK  143  A    between atoms: _347  and  _350
REMARK  144  A    between atoms: _350  and  _351
REMARK  145  A    between atoms: _354  and  _358
REMARK  146  A    between atoms: _358  and  _359
REMARK  147  A    between atoms: _358  and  _361
REMARK  148  A    between atoms: _361  and  _362
REMARK  149  A    between atoms: _362  and  _363
REMARK  150  A    between atoms: _367  and  _368
REMARK  151  A    between atoms: _373  and  _375
REMARK  152  A    between atoms: _375  and  _376
REMARK  153  A    between atoms: _375  and  _378
REMARK  154  A    between atoms: _378  and  _379
REMARK  155  A    between atoms: _379  and  _380
REMARK  156  A    between atoms: _382  and  _384
REMARK  157  A    between atoms: _384  and  _385
REMARK  158  A    between atoms: _388  and  _390
REMARK  159  A    between atoms: _390  and  _391
REMARK  160  A    between atoms: _390  and  _393
REMARK  161  A    between atoms: _393  and  _394
REMARK  162  A    between atoms: _394  and  _395
REMARK  163  A    between atoms: _400  and  _402
REMARK  164  A    between atoms: _402  and  _403
REMARK  165  A    between atoms: _402  and  _405
REMARK  166  A    between atoms: _405  and  _406
REMARK  167  A    between atoms: _411  and  _413
REMARK  168  A    between atoms: _413  and  _414
REMARK  169  A    between atoms: _413  and  _416
REMARK  170  A    between atoms: _419  and  _421
REMARK  171  A    between atoms: _421  and  _422
REMARK  172  A    between atoms: _421  and  _424
REMARK  173  A    between atoms: _424  and  _425
REMARK  174  A    between atoms: _428  and  _430
REMARK  175  A    between atoms: _430  and  _431
REMARK  176  A    between atoms: _430  and  _433
REMARK  177  A    between atoms: _433  and  _434
REMARK  178  A    between atoms: _437  and  _439
REMARK  179  A    between atoms: _439  and  _440
REMARK  180  A    between atoms: _439  and  _442
REMARK  181  A    between atoms: _442  and  _443
REMARK  182  A    between atoms: _448  and  _450
REMARK  183  A    between atoms: _450  and  _451
REMARK  184  A    between atoms: _450  and  _453
REMARK  185  A    between atoms: _453  and  _454
REMARK  186  A    between atoms: _454  and  _455
REMARK  187  A    between atoms: _455  and  _456
REMARK  188  A    between atoms: _456  and  _457
REMARK  189  A    between atoms: _461  and  _463
REMARK  190  A    between atoms: _463  and  _464
REMARK  191  A    between atoms: _463  and  _466
REMARK  192  A    between atoms: _466  and  _467
REMARK  193  A    between atoms: _470  and  _472
REMARK  194  A    between atoms: _472  and  _473
REMARK  195  A    between atoms: _472  and  _475
REMARK  196  A    between atoms: _475  and  _476
REMARK  197  A    between atoms: _479  and  _481
REMARK  198  A    between atoms: _481  and  _482
REMARK  199  A    between atoms: _481  and  _484
REMARK  200  A    between atoms: _484  and  _485
REMARK  201  A    between atoms: _488  and  _490
REMARK  202  A    between atoms: _490  and  _491
REMARK  203  A    between atoms: _490  and  _493
REMARK  204  A    between atoms: _493  and  _494
REMARK  205  A    between atoms: _497  and  _499
REMARK  206  A    between atoms: _499  and  _500
REMARK  207  A    between atoms: _502  and  _504
REMARK  208  A    between atoms: _504  and  _505
REMARK  209  A    between atoms: _504  and  _507
REMARK  210  A    between atoms: _507  and  _508
REMARK  211  A    between atoms: _513  and  _515
REMARK  212  A    between atoms: _515  and  _516
REMARK  213  A    between atoms: _515  and  _518
REMARK  214  A    between atoms: _518  and  _519
REMARK  215  A    between atoms: _519  and  _520
REMARK  216  A    between atoms: _523  and  _525
REMARK  217  A    between atoms: _525  and  _526
REMARK  218  A    between atoms: _525  and  _528
REMARK  219  A    between atoms: _528  and  _529
REMARK  220  A    between atoms: _534  and  _536
REMARK  221  A    between atoms: _536  and  _537
REMARK  222  A    between atoms: _536  and  _539
REMARK  223  A    between atoms: _539  and  _540
REMARK  224  A    between atoms: _540  and  _541
REMARK  225  A    between atoms: _543  and  _545
REMARK  226  A    between atoms: _545  and  _546
REMARK  227  A    between atoms: _545  and  _548
REMARK  228  A    between atoms: _548  and  _549
REMARK  229  A    between atoms: _549  and  _550
REMARK  230  A    between atoms: _550  and  _551
REMARK  231  A    between atoms: _560  and  _562
REMARK  232  A    between atoms: _562  and  _563
REMARK  233  A    between atoms: _562  and  _565
REMARK  234  A    between atoms: _565  and  _566
REMARK  235  A    between atoms: _569  and  _571
REMARK  236  A    between atoms: _571  and  _572
REMARK  237  A    between atoms: _575  and  _577
REMARK  238  A    between atoms: _577  and  _578
REMARK  239  A    between atoms: _577  and  _580
REMARK  240  A    between atoms: _580  and  _581
REMARK  241  A    between atoms: _587  and  _589
REMARK  242  A    between atoms: _589  and  _590
REMARK  243  A    between atoms: _589  and  _592
REMARK  244  A    between atoms: _592  and  _593
REMARK  245  A    between atoms: _593  and  _594
REMARK  246  A    between atoms: _597  and  _599
REMARK  247  A    between atoms: _599  and  _600
REMARK  248  A    between atoms: _599  and  _602
REMARK  249  A    between atoms: _602  and  _603
REMARK  250  A    between atoms: _605  and  _607
REMARK  251  A    between atoms: _607  and  _608
REMARK  252  A    between atoms: _607  and  _610
REMARK  253  A    between atoms: _610  and  _611
REMARK  254  A    between atoms: _621  and  _623
REMARK  255  A    between atoms: _623  and  _624
REMARK  256  A    between atoms: _623  and  _626
REMARK  257  A    between atoms: _626  and  _627
REMARK  258  A    between atoms: _629  and  _631
REMARK  259  A    between atoms: _631  and  _632
REMARK  260  A    between atoms: _631  and  _634
REMARK  261  A    between atoms: _637  and  _639
REMARK  262  A    between atoms: _639  and  _640
REMARK  263  A    between atoms: _639  and  _642
REMARK  264  A    between atoms: _642  and  _643
REMARK  265  A    between atoms: _646  and  _648
REMARK  266  A    between atoms: _648  and  _649
REMARK  267  A    between atoms: _648  and  _651
REMARK  268  A    between atoms: _651  and  _652
REMARK                            x       y       z     vdW  Elec       q    Type
REMARK                         _______ _______ _______ _____ _____    ______ ____
ROOT
ATOM      1  O   HOH     1     -10.046  -0.298  -5.725  0.00  0.00    +0.000 OA
ENDROOT
TORSDOF 0
REMARK  Name = ../refined-set-2016/3f8c/3f8c_pocket.pdb
REMARK  268 active torsions:
REMARK  status: ('A' for Active; 'I' for Inactive)
REMARK    1  A    between atoms: _1  and  _5
REMARK    2  A    between atoms: _5  and  _6
REMARK    3  A    between atoms: _5  and  _8
REMARK    4  A    between atoms: _8  and  _9
REMARK    5  A    between atoms: _9  and  _10
REMARK    6  A    between atoms: _14  and  _15
REMARK    7  A    between atoms: _20  and  _22
REMARK    8  A    between atoms: _22  and  _23
REMARK    9  A    between atoms: _22  and  _25
REMARK   10  A    between atoms: _25  and  _26
REMARK   11  A    between atoms: _26  and  _27
REMARK   12  A    between atoms: _29  and  _31
REMARK   13  A    between atoms: _31  and  _32
REMARK   14  A    between atoms: _31  and  _34
REMARK   15  A    between atoms: _34  and  _35
REMARK   16  A    between atoms: _35  and  _36
REMARK   17  A    between atoms: _36  and  _37
REMARK   18  A    between atoms: _46  and  _48
REMARK   19  A    between atoms: _48  and  _49
REMARK   20  A    between atoms: _52  and  _54
REMARK   21  A    between atoms: _54  and  _55
REMARK   22  A    between atoms: _54  and  _57
REMARK   23  A    between atoms: _57  and  _58
REMARK   24  A    between atoms: _58  and  _59
REMARK   25  A    between atoms: _64  and  _66
REMARK   26  A    between atoms: _66  and  _67
REMARK   27  A    between atoms: _66  and  _69
REMARK   28  A    between atoms: _69  and  _70
REMARK   29  A    between atoms: _73  and  _75
REMARK   30  A    between atoms: _75  and  _76
REMARK   31  A    between atoms: _75  and  _78
REMARK   32  A    between atoms: _78  and  _79
REMARK   33  A    between atoms: _84  and  _86
REMARK   34  A    between atoms: _86  and  _87
REMARK   35  A    between atoms: _86  and  _89
REMARK   36  A    between atoms: _92  and  _94
REMARK   37  A    between atoms: _94  and  _95
REMARK   38  A    between atoms: _94  and  _97
REMARK   39  A    between atoms: _97  and  _98
REMARK   40  A    between atoms: _101  and  _103
REMARK   41  A    between atoms: _103  and  _104
REMARK   42  A    between atoms: _103  and  _106
REMARK   43  A    between atoms: _106  and  _107
REMARK   44  A    between atoms: _110  and  _112
REMARK   45  A    between atoms: _112  and  _113
REMARK   46  A    between atoms: _112  and  _115
REMARK   47  A    between atoms: _115  and  _116
REMARK   48  A    between atoms: _121  and  _123
REMARK   49  A    between atoms: _123  and  _124
REMARK   50  A    between atoms: _123  and  _126
REMARK   51  A    between atoms: _126  and  _127
REMARK   52  A    between atoms: _127  and  _128
REMARK   53  A    between atoms: _128  and  _129
REMARK   54  A    between atoms: _129  and  _130
REMARK   55  A    between atoms: _134  and  _136
REMARK   56  A    between atoms: _136  and  _137
REMARK   57  A    between atoms: _136  and  _139
REMARK   58  A    between atoms: _139  and  _140
REMARK   59  A    between atoms: _140  and  _141
REMARK   60  A    between atoms: _141  and  _142
REMARK   61  A    between atoms: _151  and  _153
REMARK   62  A    between atoms: _153  and  _154
REMARK   63  A    between atoms: _153  and  _156
REMARK   64  A    between atoms: _156  and  _157
REMARK   65  A    between atoms: _160  and  _162
REMARK   66  A    between atoms: _162  and  _163
REMARK   67  A    between atoms: _162  and  _165
REMARK   68  A    between atoms: _165  and  _166
REMARK   69  A    between atoms: _169  and  _171
REMARK   70  A    between atoms: _171  and  _172
REMARK   71  A    between atoms: _171  and  _174
REMARK   72  A    between atoms: _174  and  _175
REMARK   73  A    between atoms: _178  and  _180
REMARK   74  A    between atoms: _180  and  _181
REMARK   75  A    between atoms: _180  and  _183
REMARK   76  A    between atoms: _183  and  _184
REMARK   77  A    between atoms: _187  and  _189
REMARK   78  A    between atoms: _189  and  _190
REMARK   79  A    between atoms: _189  and  _192
REMARK   80  A    between atoms: _192  and  _193
REMARK   81  A    between atoms: _196  and  _198
REMARK   82  A    between atoms: _198  and  _199
REMARK   83  A    between atoms: _201  and  _203
REMARK   84  A    between atoms: _203  and  _204
REMARK   85  A    between atoms: _203  and  _206
REMARK   86  A    between atoms: _206  and  _207
REMARK   87  A    between atoms: _212  and  _214
REMARK   88  A    between atoms: _214  and  _215
REMARK   89  A    between atoms: _214  and  _217
REMARK   90  A    between atoms: _217  and  _218
REMARK   91  A    between atoms: _218  and  _219
REMARK   92  A    between atoms: _222  and  _224
REMARK   93  A    between atoms: _224  and  _225
REMARK   94  A    between atoms: _224  and  _227
REMARK   95  A    between atoms: _227  and  _228
REMARK   96  A    between atoms: _233  and  _235
REMARK   97  A    between atoms: _235  and  _236
REMARK   98  A    between atoms: _235  and  _238
REMARK   99  A    between atoms: _238  and  _239
REMARK  100  A    between atoms: _239  and  _240
REMARK  101  A    between atoms: _242  and  _244
REMARK  102  A    between atoms: _244  and  _245
REMARK  103  A    between atoms: _244  and  _247
REMARK  104  A    between atoms: _247  and  _248
REMARK  105  A    between atoms: _248  and  _249
REMARK  106  A    between atoms: _249  and  _250
REMARK  107  A    between atoms: _259  and  _261
REMARK  108  A    between atoms: _261  and  _262
REMARK  109  A    between atoms: _261  and  _264
REMARK  110  A    between atoms: _264  and  _265
REMARK  111  A    between atoms: _268  and  _270
REMARK  112  A    between atoms: _270  and  _271
REMARK  113  A    between atoms: _274  and  _276
REMARK  114  A    between atoms: _276  and  _277
REMARK  115  A    between atoms: _276  and  _279
REMARK  116  A    between atoms: _279  and  _280
REMARK  117  A    between atoms: _286  and  _288
REMARK  118  A    between atoms: _288  and  _289
REMARK  119  A    between atoms: _288  and  _291
REMARK  120  A    between atoms: _291  and  _292
REMARK  121  A    between atoms: _292  and  _293
REMARK  122  A    between atoms: _296  and  _298
REMARK  123  A    between atoms: _298  and  _299
REMARK  124  A    between atoms: _298  and  _301
REMARK  125  A    between atoms: _301  and  _302
REMARK  126  A    between atoms: _304  and  _306
REMARK  127  A    between atoms: _306  and  _307
REMARK  128  A    between atoms: _306  and  _309
REMARK  129  A    between atoms: _309  and  _310
REMARK  130  A    between atoms: _320  and  _322
REMARK  131  A    between atoms: _322  and  _323
REMARK  132  A    between atoms: _322  and  _325
REMARK  133  A    between atoms: _325  and  _326
REMARK  134  A    between atoms: _328  and  _330
REMARK  135  A    between atoms: _330  and  _331
REMARK  136  A    between atoms: _330  and  _333
REMARK  137  A    between atoms: _336  and  _338
REMARK  138  A    between atoms: _338  and  _339
REMARK  139  A    between atoms: _338  and  _341
REMARK  140  A    between atoms: _341  and  _342
REMARK  141  A    between atoms: _345  and  _347
REMARK  142  A    between atoms: _347  and  _348
REMARK  143  A    between atoms: _347  and  _350
REMARK  144  A    between atoms: _350  and  _351
REMARK  145  A    between atoms: _354  and  _358
REMARK  146  A    between atoms: _358  and  _359
REMARK  147  A    between atoms: _358  and  _361
REMARK  148  A    between atoms: _361  and  _362
REMARK  149  A    between atoms: _362  and  _363
REMARK  150  A    between atoms: _367  and  _368
REMARK  151  A    between atoms: _373  and  _375
REMARK  152  A    between atoms: _375  and  _376
REMARK  153  A    between atoms: _375  and  _378
REMARK  154  A    between atoms: _378  and  _379
REMARK  155  A    between atoms: _379  and  _380
REMARK  156  A    between atoms: _382  and  _384
REMARK  157  A    between atoms: _384  and  _385
REMARK  158  A    between atoms: _388  and  _390
REMARK  159  A    between atoms: _390  and  _391
REMARK  160  A    between atoms: _390  and  _393
REMARK  161  A    between atoms: _393  and  _394
REMARK  162  A    between atoms: _394  and  _395
REMARK  163  A    between atoms: _400  and  _402
REMARK  164  A    between atoms: _402  and  _403
REMARK  165  A    between atoms: _402  and  _405
REMARK  166  A    between atoms: _405  and  _406
REMARK  167  A    between atoms: _411  and  _413
REMARK  168  A    between atoms: _413  and  _414
REMARK  169  A    between atoms: _413  and  _416
REMARK  170  A    between atoms: _419  and  _421
REMARK  171  A    between atoms: _421  and  _422
REMARK  172  A    between atoms: _421  and  _424
REMARK  173  A    between atoms: _424  and  _425
REMARK  174  A    between atoms: _428  and  _430
REMARK  175  A    between atoms: _430  and  _431
REMARK  176  A    between atoms: _430  and  _433
REMARK  177  A    between atoms: _433  and  _434
REMARK  178  A    between atoms: _437  and  _439
REMARK  179  A    between atoms: _439  and  _440
REMARK  180  A    between atoms: _439  and  _442
REMARK  181  A    between atoms: _442  and  _443
REMARK  182  A    between atoms: _448  and  _450
REMARK  183  A    between atoms: _450  and  _451
REMARK  184  A    between atoms: _450  and  _453
REMARK  185  A    between atoms: _453  and  _454
REMARK  186  A    between atoms: _454  and  _455
REMARK  187  A    between atoms: _455  and  _456
REMARK  188  A    between atoms: _456  and  _457
REMARK  189  A    between atoms: _461  and  _463
REMARK  190  A    between atoms: _463  and  _464
REMARK  191  A    between atoms: _463  and  _466
REMARK  192  A    between atoms: _466  and  _467
REMARK  193  A    between atoms: _470  and  _472
REMARK  194  A    between atoms: _472  and  _473
REMARK  195  A    between atoms: _472  and  _475
REMARK  196  A    between atoms: _475  and  _476
REMARK  197  A    between atoms: _479  and  _481
REMARK  198  A    between atoms: _481  and  _482
REMARK  199  A    between atoms: _481  and  _484
REMARK  200  A    between atoms: _484  and  _485
REMARK  201  A    between atoms: _488  and  _490
REMARK  202  A    between atoms: _490  and  _491
REMARK  203  A    between atoms: _490  and  _493
REMARK  204  A    between atoms: _493  and  _494
REMARK  205  A    between atoms: _497  and  _499
REMARK  206  A    between atoms: _499  and  _500
REMARK  207  A    between atoms: _502  and  _504
REMARK  208  A    between atoms: _504  and  _505
REMARK  209  A    between atoms: _504  and  _507
REMARK  210  A    between atoms: _507  and  _508
REMARK  211  A    between atoms: _513  and  _515
REMARK  212  A    between atoms: _515  and  _516
REMARK  213  A    between atoms: _515  and  _518
REMARK  214  A    between atoms: _518  and  _519
REMARK  215  A    between atoms: _519  and  _520
REMARK  216  A    between atoms: _523  and  _525
REMARK  217  A    between atoms: _525  and  _526
REMARK  218  A    between atoms: _525  and  _528
REMARK  219  A    between atoms: _528  and  _529
REMARK  220  A    between atoms: _534  and  _536
REMARK  221  A    between atoms: _536  and  _537
REMARK  222  A    between atoms: _536  and  _539
REMARK  223  A    between atoms: _539  and  _540
REMARK  224  A    between atoms: _540  and  _541
REMARK  225  A    between atoms: _543  and  _545
REMARK  226  A    between atoms: _545  and  _546
REMARK  227  A    between atoms: _545  and  _548
REMARK  228  A    between atoms: _548  and  _549
REMARK  229  A    between atoms: _549  and  _550
REMARK  230  A    between atoms: _550  and  _551
REMARK  231  A    between atoms: _560  and  _562
REMARK  232  A    between atoms: _562  and  _563
REMARK  233  A    between atoms: _562  and  _565
REMARK  234  A    between atoms: _565  and  _566
REMARK  235  A    between atoms: _569  and  _571
REMARK  236  A    between atoms: _571  and  _572
REMARK  237  A    between atoms: _575  and  _577
REMARK  238  A    between atoms: _577  and  _578
REMARK  239  A    between atoms: _577  and  _580
REMARK  240  A    between atoms: _580  and  _581
REMARK  241  A    between atoms: _587  and  _589
REMARK  242  A    between atoms: _589  and  _590
REMARK  243  A    between atoms: _589  and  _592
REMARK  244  A    between atoms: _592  and  _593
REMARK  245  A    between atoms: _593  and  _594
REMARK  246  A    between atoms: _597  and  _599
REMARK  247  A    between atoms: _599  and  _600
REMARK  248  A    between atoms: _599  and  _602
REMARK  249  A    between atoms: _602  and  _603
REMARK  250  A    between atoms: _605  and  _607
REMARK  251  A    between atoms: _607  and  _608
REMARK  252  A    between atoms: _607  and  _610
REMARK  253  A    between atoms: _610  and  _611
REMARK  254  A    between atoms: _621  and  _623
REMARK  255  A    between atoms: _623  and  _624
REMARK  256  A    between atoms: _623  and  _626
REMARK  257  A    between atoms: _626  and  _627
REMARK  258  A    between atoms: _629  and  _631
REMARK  259  A    between atoms: _631  and  _632
REMARK  260  A    between atoms: _631  and  _634
REMARK  261  A    between atoms: _637  and  _639
REMARK  262  A    between atoms: _639  and  _640
REMARK  263  A    between atoms: _639  and  _642
REMARK  264  A    between atoms: _642  and  _643
REMARK  265  A    between atoms: _646  and  _648
REMARK  266  A    between atoms: _648  and  _649
REMARK  267  A    between atoms: _648  and  _651
REMARK  268  A    between atoms: _651  and  _652
REMARK                            x       y       z     vdW  Elec       q    Type
REMARK                         _______ _______ _______ _____ _____    ______ ____
ROOT
ATOM      1  O   HOH     1      -6.679  -4.128  -3.963  0.00  0.00    +0.000 OA
ENDROOT
TORSDOF 0
REMARK  Name = ../refined-set-2016/3f8c/3f8c_pocket.pdb
REMARK  268 active torsions:
REMARK  status: ('A' for Active; 'I' for Inactive)
REMARK    1  A    between atoms: _1  and  _5
REMARK    2  A    between atoms: _5  and  _6
REMARK    3  A    between atoms: _5  and  _8
REMARK    4  A    between atoms: _8  and  _9
REMARK    5  A    between atoms: _9  and  _10
REMARK    6  A    between atoms: _14  and  _15
REMARK    7  A    between atoms: _20  and  _22
REMARK    8  A    between atoms: _22  and  _23
REMARK    9  A    between atoms: _22  and  _25
REMARK   10  A    between atoms: _25  and  _26
REMARK   11  A    between atoms: _26  and  _27
REMARK   12  A    between atoms: _29  and  _31
REMARK   13  A    between atoms: _31  and  _32
REMARK   14  A    between atoms: _31  and  _34
REMARK   15  A    between atoms: _34  and  _35
REMARK   16  A    between atoms: _35  and  _36
REMARK   17  A    between atoms: _36  and  _37
REMARK   18  A    between atoms: _46  and  _48
REMARK   19  A    between atoms: _48  and  _49
REMARK   20  A    between atoms: _52  and  _54
REMARK   21  A    between atoms: _54  and  _55
REMARK   22  A    between atoms: _54  and  _57
REMARK   23  A    between atoms: _57  and  _58
REMARK   24  A    between atoms: _58  and  _59
REMARK   25  A    between atoms: _64  and  _66
REMARK   26  A    between atoms: _66  and  _67
REMARK   27  A    between atoms: _66  and  _69
REMARK   28  A    between atoms: _69  and  _70
REMARK   29  A    between atoms: _73  and  _75
REMARK   30  A    between atoms: _75  and  _76
REMARK   31  A    between atoms: _75  and  _78
REMARK   32  A    between atoms: _78  and  _79
REMARK   33  A    between atoms: _84  and  _86
REMARK   34  A    between atoms: _86  and  _87
REMARK   35  A    between atoms: _86  and  _89
REMARK   36  A    between atoms: _92  and  _94
REMARK   37  A    between atoms: _94  and  _95
REMARK   38  A    between atoms: _94  and  _97
REMARK   39  A    between atoms: _97  and  _98
REMARK   40  A    between atoms: _101  and  _103
REMARK   41  A    between atoms: _103  and  _104
REMARK   42  A    between atoms: _103  and  _106
REMARK   43  A    between atoms: _106  and  _107
REMARK   44  A    between atoms: _110  and  _112
REMARK   45  A    between atoms: _112  and  _113
REMARK   46  A    between atoms: _112  and  _115
REMARK   47  A    between atoms: _115  and  _116
REMARK   48  A    between atoms: _121  and  _123
REMARK   49  A    between atoms: _123  and  _124
REMARK   50  A    between atoms: _123  and  _126
REMARK   51  A    between atoms: _126  and  _127
REMARK   52  A    between atoms: _127  and  _128
REMARK   53  A    between atoms: _128  and  _129
REMARK   54  A    between atoms: _129  and  _130
REMARK   55  A    between atoms: _134  and  _136
REMARK   56  A    between atoms: _136  and  _137
REMARK   57  A    between atoms: _136  and  _139
REMARK   58  A    between atoms: _139  and  _140
REMARK   59  A    between atoms: _140  and  _141
REMARK   60  A    between atoms: _141  and  _142
REMARK   61  A    between atoms: _151  and  _153
REMARK   62  A    between atoms: _153  and  _154
REMARK   63  A    between atoms: _153  and  _156
REMARK   64  A    between atoms: _156  and  _157
REMARK   65  A    between atoms: _160  and  _162
REMARK   66  A    between atoms: _162  and  _163
REMARK   67  A    between atoms: _162  and  _165
REMARK   68  A    between atoms: _165  and  _166
REMARK   69  A    between atoms: _169  and  _171
REMARK   70  A    between atoms: _171  and  _172
REMARK   71  A    between atoms: _171  and  _174
REMARK   72  A    between atoms: _174  and  _175
REMARK   73  A    between atoms: _178  and  _180
REMARK   74  A    between atoms: _180  and  _181
REMARK   75  A    between atoms: _180  and  _183
REMARK   76  A    between atoms: _183  and  _184
REMARK   77  A    between atoms: _187  and  _189
REMARK   78  A    between atoms: _189  and  _190
REMARK   79  A    between atoms: _189  and  _192
REMARK   80  A    between atoms: _192  and  _193
REMARK   81  A    between atoms: _196  and  _198
REMARK   82  A    between atoms: _198  and  _199
REMARK   83  A    between atoms: _201  and  _203
REMARK   84  A    between atoms: _203  and  _204
REMARK   85  A    between atoms: _203  and  _206
REMARK   86  A    between atoms: _206  and  _207
REMARK   87  A    between atoms: _212  and  _214
REMARK   88  A    between atoms: _214  and  _215
REMARK   89  A    between atoms: _214  and  _217
REMARK   90  A    between atoms: _217  and  _218
REMARK   91  A    between atoms: _218  and  _219
REMARK   92  A    between atoms: _222  and  _224
REMARK   93  A    between atoms: _224  and  _225
REMARK   94  A    between atoms: _224  and  _227
REMARK   95  A    between atoms: _227  and  _228
REMARK   96  A    between atoms: _233  and  _235
REMARK   97  A    between atoms: _235  and  _236
REMARK   98  A    between atoms: _235  and  _238
REMARK   99  A    between atoms: _238  and  _239
REMARK  100  A    between atoms: _239  and  _240
REMARK  101  A    between atoms: _242  and  _244
REMARK  102  A    between atoms: _244  and  _245
REMARK  103  A    between atoms: _244  and  _247
REMARK  104  A    between atoms: _247  and  _248
REMARK  105  A    between atoms: _248  and  _249
REMARK  106  A    between atoms: _249  and  _250
REMARK  107  A    between atoms: _259  and  _261
REMARK  108  A    between atoms: _261  and  _262
REMARK  109  A    between atoms: _261  and  _264
REMARK  110  A    between atoms: _264  and  _265
REMARK  111  A    between atoms: _268  and  _270
REMARK  112  A    between atoms: _270  and  _271
REMARK  113  A    between atoms: _274  and  _276
REMARK  114  A    between atoms: _276  and  _277
REMARK  115  A    between atoms: _276  and  _279
REMARK  116  A    between atoms: _279  and  _280
REMARK  117  A    between atoms: _286  and  _288
REMARK  118  A    between atoms: _288  and  _289
REMARK  119  A    between atoms: _288  and  _291
REMARK  120  A    between atoms: _291  and  _292
REMARK  121  A    between atoms: _292  and  _293
REMARK  122  A    between atoms: _296  and  _298
REMARK  123  A    between atoms: _298  and  _299
REMARK  124  A    between atoms: _298  and  _301
REMARK  125  A    between atoms: _301  and  _302
REMARK  126  A    between atoms: _304  and  _306
REMARK  127  A    between atoms: _306  and  _307
REMARK  128  A    between atoms: _306  and  _309
REMARK  129  A    between atoms: _309  and  _310
REMARK  130  A    between atoms: _320  and  _322
REMARK  131  A    between atoms: _322  and  _323
REMARK  132  A    between atoms: _322  and  _325
REMARK  133  A    between atoms: _325  and  _326
REMARK  134  A    between atoms: _328  and  _330
REMARK  135  A    between atoms: _330  and  _331
REMARK  136  A    between atoms: _330  and  _333
REMARK  137  A    between atoms: _336  and  _338
REMARK  138  A    between atoms: _338  and  _339
REMARK  139  A    between atoms: _338  and  _341
REMARK  140  A    between atoms: _341  and  _342
REMARK  141  A    between atoms: _345  and  _347
REMARK  142  A    between atoms: _347  and  _348
REMARK  143  A    between atoms: _347  and  _350
REMARK  144  A    between atoms: _350  and  _351
REMARK  145  A    between atoms: _354  and  _358
REMARK  146  A    between atoms: _358  and  _359
REMARK  147  A    between atoms: _358  and  _361
REMARK  148  A    between atoms: _361  and  _362
REMARK  149  A    between atoms: _362  and  _363
REMARK  150  A    between atoms: _367  and  _368
REMARK  151  A    between atoms: _373  and  _375
REMARK  152  A    between atoms: _375  and  _376
REMARK  153  A    between atoms: _375  and  _378
REMARK  154  A    between atoms: _378  and  _379
REMARK  155  A    between atoms: _379  and  _380
REMARK  156  A    between atoms: _382  and  _384
REMARK  157  A    between atoms: _384  and  _385
REMARK  158  A    between atoms: _388  and  _390
REMARK  159  A    between atoms: _390  and  _391
REMARK  160  A    between atoms: _390  and  _393
REMARK  161  A    between atoms: _393  and  _394
REMARK  162  A    between atoms: _394  and  _395
REMARK  163  A    between atoms: _400  and  _402
REMARK  164  A    between atoms: _402  and  _403
REMARK  165  A    between atoms: _402  and  _405
REMARK  166  A    between atoms: _405  and  _406
REMARK  167  A    between atoms: _411  and  _413
REMARK  168  A    between atoms: _413  and  _414
REMARK  169  A    between atoms: _413  and  _416
REMARK  170  A    between atoms: _419  and  _421
REMARK  171  A    between atoms: _421  and  _422
REMARK  172  A    between atoms: _421  and  _424
REMARK  173  A    between atoms: _424  and  _425
REMARK  174  A    between atoms: _428  and  _430
REMARK  175  A    between atoms: _430  and  _431
REMARK  176  A    between atoms: _430  and  _433
REMARK  177  A    between atoms: _433  and  _434
REMARK  178  A    between atoms: _437  and  _439
REMARK  179  A    between atoms: _439  and  _440
REMARK  180  A    between atoms: _439  and  _442
REMARK  181  A    between atoms: _442  and  _443
REMARK  182  A    between atoms: _448  and  _450
REMARK  183  A    between atoms: _450  and  _451
REMARK  184  A    between atoms: _450  and  _453
REMARK  185  A    between atoms: _453  and  _454
REMARK  186  A    between atoms: _454  and  _455
REMARK  187  A    between atoms: _455  and  _456
REMARK  188  A    between atoms: _456  and  _457
REMARK  189  A    between atoms: _461  and  _463
REMARK  190  A    between atoms: _463  and  _464
REMARK  191  A    between atoms: _463  and  _466
REMARK  192  A    between atoms: _466  and  _467
REMARK  193  A    between atoms: _470  and  _472
REMARK  194  A    between atoms: _472  and  _473
REMARK  195  A    between atoms: _472  and  _475
REMARK  196  A    between atoms: _475  and  _476
REMARK  197  A    between atoms: _479  and  _481
REMARK  198  A    between atoms: _481  and  _482
REMARK  199  A    between atoms: _481  and  _484
REMARK  200  A    between atoms: _484  and  _485
REMARK  201  A    between atoms: _488  and  _490
REMARK  202  A    between atoms: _490  and  _491
REMARK  203  A    between atoms: _490  and  _493
REMARK  204  A    between atoms: _493  and  _494
REMARK  205  A    between atoms: _497  and  _499
REMARK  206  A    between atoms: _499  and  _500
REMARK  207  A    between atoms: _502  and  _504
REMARK  208  A    between atoms: _504  and  _505
REMARK  209  A    between atoms: _504  and  _507
REMARK  210  A    between atoms: _507  and  _508
REMARK  211  A    between atoms: _513  and  _515
REMARK  212  A    between atoms: _515  and  _516
REMARK  213  A    between atoms: _515  and  _518
REMARK  214  A    between atoms: _518  and  _519
REMARK  215  A    between atoms: _519  and  _520
REMARK  216  A    between atoms: _523  and  _525
REMARK  217  A    between atoms: _525  and  _526
REMARK  218  A    between atoms: _525  and  _528
REMARK  219  A    between atoms: _528  and  _529
REMARK  220  A    between atoms: _534  and  _536
REMARK  221  A    between atoms: _536  and  _537
REMARK  222  A    between atoms: _536  and  _539
REMARK  223  A    between atoms: _539  and  _540
REMARK  224  A    between atoms: _540  and  _541
REMARK  225  A    between atoms: _543  and  _545
REMARK  226  A    between atoms: _545  and  _546
REMARK  227  A    between atoms: _545  and  _548
REMARK  228  A    between atoms: _548  and  _549
REMARK  229  A    between atoms: _549  and  _550
REMARK  230  A    between atoms: _550  and  _551
REMARK  231  A    between atoms: _560  and  _562
REMARK  232  A    between atoms: _562  and  _563
REMARK  233  A    between atoms: _562  and  _565
REMARK  234  A    between atoms: _565  and  _566
REMARK  235  A    between atoms: _569  and  _571
REMARK  236  A    between atoms: _571  and  _572
REMARK  237  A    between atoms: _575  and  _577
REMARK  238  A    between atoms: _577  and  _578
REMARK  239  A    between atoms: _577  and  _580
REMARK  240  A    between atoms: _580  and  _581
REMARK  241  A    between atoms: _587  and  _589
REMARK  242  A    between atoms: _589  and  _590
REMARK  243  A    between atoms: _589  and  _592
REMARK  244  A    between atoms: _592  and  _593
REMARK  245  A    between atoms: _593  and  _594
REMARK  246  A    between atoms: _597  and  _599
REMARK  247  A    between atoms: _599  and  _600
REMARK  248  A    between atoms: _599  and  _602
REMARK  249  A    between atoms: _602  and  _603
REMARK  250  A    between atoms: _605  and  _607
REMARK  251  A    between atoms: _607  and  _608
REMARK  252  A    between atoms: _607  and  _610
REMARK  253  A    between atoms: _610  and  _611
REMARK  254  A    between atoms: _621  and  _623
REMARK  255  A    between atoms: _623  and  _624
REMARK  256  A    between atoms: _623  and  _626
REMARK  257  A    between atoms: _626  and  _627
REMARK  258  A    between atoms: _629  and  _631
REMARK  259  A    between atoms: _631  and  _632
REMARK  260  A    between atoms: _631  and  _634
REMARK  261  A    between atoms: _637  and  _639
REMARK  262  A    between atoms: _639  and  _640
REMARK  263  A    between atoms: _639  and  _642
REMARK  264  A    between atoms: _642  and  _643
REMARK  265  A    between atoms: _646  and  _648
REMARK  266  A    between atoms: _648  and  _649
REMARK  267  A    between atoms: _648  and  _651
REMARK  268  A    between atoms: _651  and  _652
REMARK                            x       y       z     vdW  Elec       q    Type
REMARK                         _______ _______ _______ _____ _____    ______ ____
ROOT
ATOM      1  O   HOH     1      -1.233   3.223  -7.624  0.00  0.00    +0.000 OA
ENDROOT
TORSDOF 0
REMARK  Name = ../refined-set-2016/3f8c/3f8c_pocket.pdb
REMARK  268 active torsions:
REMARK  status: ('A' for Active; 'I' for Inactive)
REMARK    1  A    between atoms: _1  and  _5
REMARK    2  A    between atoms: _5  and  _6
REMARK    3  A    between atoms: _5  and  _8
REMARK    4  A    between atoms: _8  and  _9
REMARK    5  A    between atoms: _9  and  _10
REMARK    6  A    between atoms: _14  and  _15
REMARK    7  A    between atoms: _20  and  _22
REMARK    8  A    between atoms: _22  and  _23
REMARK    9  A    between atoms: _22  and  _25
REMARK   10  A    between atoms: _25  and  _26
REMARK   11  A    between atoms: _26  and  _27
REMARK   12  A    between atoms: _29  and  _31
REMARK   13  A    between atoms: _31  and  _32
REMARK   14  A    between atoms: _31  and  _34
REMARK   15  A    between atoms: _34  and  _35
REMARK   16  A    between atoms: _35  and  _36
REMARK   17  A    between atoms: _36  and  _37
REMARK   18  A    between atoms: _46  and  _48
REMARK   19  A    between atoms: _48  and  _49
REMARK   20  A    between atoms: _52  and  _54
REMARK   21  A    between atoms: _54  and  _55
REMARK   22  A    between atoms: _54  and  _57
REMARK   23  A    between atoms: _57  and  _58
REMARK   24  A    between atoms: _58  and  _59
REMARK   25  A    between atoms: _64  and  _66
REMARK   26  A    between atoms: _66  and  _67
REMARK   27  A    between atoms: _66  and  _69
REMARK   28  A    between atoms: _69  and  _70
REMARK   29  A    between atoms: _73  and  _75
REMARK   30  A    between atoms: _75  and  _76
REMARK   31  A    between atoms: _75  and  _78
REMARK   32  A    between atoms: _78  and  _79
REMARK   33  A    between atoms: _84  and  _86
REMARK   34  A    between atoms: _86  and  _87
REMARK   35  A    between atoms: _86  and  _89
REMARK   36  A    between atoms: _92  and  _94
REMARK   37  A    between atoms: _94  and  _95
REMARK   38  A    between atoms: _94  and  _97
REMARK   39  A    between atoms: _97  and  _98
REMARK   40  A    between atoms: _101  and  _103
REMARK   41  A    between atoms: _103  and  _104
REMARK   42  A    between atoms: _103  and  _106
REMARK   43  A    between atoms: _106  and  _107
REMARK   44  A    between atoms: _110  and  _112
REMARK   45  A    between atoms: _112  and  _113
REMARK   46  A    between atoms: _112  and  _115
REMARK   47  A    between atoms: _115  and  _116
REMARK   48  A    between atoms: _121  and  _123
REMARK   49  A    between atoms: _123  and  _124
REMARK   50  A    between atoms: _123  and  _126
REMARK   51  A    between atoms: _126  and  _127
REMARK   52  A    between atoms: _127  and  _128
REMARK   53  A    between atoms: _128  and  _129
REMARK   54  A    between atoms: _129  and  _130
REMARK   55  A    between atoms: _134  and  _136
REMARK   56  A    between atoms: _136  and  _137
REMARK   57  A    between atoms: _136  and  _139
REMARK   58  A    between atoms: _139  and  _140
REMARK   59  A    between atoms: _140  and  _141
REMARK   60  A    between atoms: _141  and  _142
REMARK   61  A    between atoms: _151  and  _153
REMARK   62  A    between atoms: _153  and  _154
REMARK   63  A    between atoms: _153  and  _156
REMARK   64  A    between atoms: _156  and  _157
REMARK   65  A    between atoms: _160  and  _162
REMARK   66  A    between atoms: _162  and  _163
REMARK   67  A    between atoms: _162  and  _165
REMARK   68  A    between atoms: _165  and  _166
REMARK   69  A    between atoms: _169  and  _171
REMARK   70  A    between atoms: _171  and  _172
REMARK   71  A    between atoms: _171  and  _174
REMARK   72  A    between atoms: _174  and  _175
REMARK   73  A    between atoms: _178  and  _180
REMARK   74  A    between atoms: _180  and  _181
REMARK   75  A    between atoms: _180  and  _183
REMARK   76  A    between atoms: _183  and  _184
REMARK   77  A    between atoms: _187  and  _189
REMARK   78  A    between atoms: _189  and  _190
REMARK   79  A    between atoms: _189  and  _192
REMARK   80  A    between atoms: _192  and  _193
REMARK   81  A    between atoms: _196  and  _198
REMARK   82  A    between atoms: _198  and  _199
REMARK   83  A    between atoms: _201  and  _203
REMARK   84  A    between atoms: _203  and  _204
REMARK   85  A    between atoms: _203  and  _206
REMARK   86  A    between atoms: _206  and  _207
REMARK   87  A    between atoms: _212  and  _214
REMARK   88  A    between atoms: _214  and  _215
REMARK   89  A    between atoms: _214  and  _217
REMARK   90  A    between atoms: _217  and  _218
REMARK   91  A    between atoms: _218  and  _219
REMARK   92  A    between atoms: _222  and  _224
REMARK   93  A    between atoms: _224  and  _225
REMARK   94  A    between atoms: _224  and  _227
REMARK   95  A    between atoms: _227  and  _228
REMARK   96  A    between atoms: _233  and  _235
REMARK   97  A    between atoms: _235  and  _236
REMARK   98  A    between atoms: _235  and  _238
REMARK   99  A    between atoms: _238  and  _239
REMARK  100  A    between atoms: _239  and  _240
REMARK  101  A    between atoms: _242  and  _244
REMARK  102  A    between atoms: _244  and  _245
REMARK  103  A    between atoms: _244  and  _247
REMARK  104  A    between atoms: _247  and  _248
REMARK  105  A    between atoms: _248  and  _249
REMARK  106  A    between atoms: _249  and  _250
REMARK  107  A    between atoms: _259  and  _261
REMARK  108  A    between atoms: _261  and  _262
REMARK  109  A    between atoms: _261  and  _264
REMARK  110  A    between atoms: _264  and  _265
REMARK  111  A    between atoms: _268  and  _270
REMARK  112  A    between atoms: _270  and  _271
REMARK  113  A    between atoms: _274  and  _276
REMARK  114  A    between atoms: _276  and  _277
REMARK  115  A    between atoms: _276  and  _279
REMARK  116  A    between atoms: _279  and  _280
REMARK  117  A    between atoms: _286  and  _288
REMARK  118  A    between atoms: _288  and  _289
REMARK  119  A    between atoms: _288  and  _291
REMARK  120  A    between atoms: _291  and  _292
REMARK  121  A    between atoms: _292  and  _293
REMARK  122  A    between atoms: _296  and  _298
REMARK  123  A    between atoms: _298  and  _299
REMARK  124  A    between atoms: _298  and  _301
REMARK  125  A    between atoms: _301  and  _302
REMARK  126  A    between atoms: _304  and  _306
REMARK  127  A    between atoms: _306  and  _307
REMARK  128  A    between atoms: _306  and  _309
REMARK  129  A    between atoms: _309  and  _310
REMARK  130  A    between atoms: _320  and  _322
REMARK  131  A    between atoms: _322  and  _323
REMARK  132  A    between atoms: _322  and  _325
REMARK  133  A    between atoms: _325  and  _326
REMARK  134  A    between atoms: _328  and  _330
REMARK  135  A    between atoms: _330  and  _331
REMARK  136  A    between atoms: _330  and  _333
REMARK  137  A    between atoms: _336  and  _338
REMARK  138  A    between atoms: _338  and  _339
REMARK  139  A    between atoms: _338  and  _341
REMARK  140  A    between atoms: _341  and  _342
REMARK  141  A    between atoms: _345  and  _347
REMARK  142  A    between atoms: _347  and  _348
REMARK  143  A    between atoms: _347  and  _350
REMARK  144  A    between atoms: _350  and  _351
REMARK  145  A    between atoms: _354  and  _358
REMARK  146  A    between atoms: _358  and  _359
REMARK  147  A    between atoms: _358  and  _361
REMARK  148  A    between atoms: _361  and  _362
REMARK  149  A    between atoms: _362  and  _363
REMARK  150  A    between atoms: _367  and  _368
REMARK  151  A    between atoms: _373  and  _375
REMARK  152  A    between atoms: _375  and  _376
REMARK  153  A    between atoms: _375  and  _378
REMARK  154  A    between atoms: _378  and  _379
REMARK  155  A    between atoms: _379  and  _380
REMARK  156  A    between atoms: _382  and  _384
REMARK  157  A    between atoms: _384  and  _385
REMARK  158  A    between atoms: _388  and  _390
REMARK  159  A    between atoms: _390  and  _391
REMARK  160  A    between atoms: _390  and  _393
REMARK  161  A    between atoms: _393  and  _394
REMARK  162  A    between atoms: _394  and  _395
REMARK  163  A    between atoms: _400  and  _402
REMARK  164  A    between atoms: _402  and  _403
REMARK  165  A    between atoms: _402  and  _405
REMARK  166  A    between atoms: _405  and  _406
REMARK  167  A    between atoms: _411  and  _413
REMARK  168  A    between atoms: _413  and  _414
REMARK  169  A    between atoms: _413  and  _416
REMARK  170  A    between atoms: _419  and  _421
REMARK  171  A    between atoms: _421  and  _422
REMARK  172  A    between atoms: _421  and  _424
REMARK  173  A    between atoms: _424  and  _425
REMARK  174  A    between atoms: _428  and  _430
REMARK  175  A    between atoms: _430  and  _431
REMARK  176  A    between atoms: _430  and  _433
REMARK  177  A    between atoms: _433  and  _434
REMARK  178  A    between atoms: _437  and  _439
REMARK  179  A    between atoms: _439  and  _440
REMARK  180  A    between atoms: _439  and  _442
REMARK  181  A    between atoms: _442  and  _443
REMARK  182  A    between atoms: _448  and  _450
REMARK  183  A    between atoms: _450  and  _451
REMARK  184  A    between atoms: _450  and  _453
REMARK  185  A    between atoms: _453  and  _454
REMARK  186  A    between atoms: _454  and  _455
REMARK  187  A    between atoms: _455  and  _456
REMARK  188  A    between atoms: _456  and  _457
REMARK  189  A    between atoms: _461  and  _463
REMARK  190  A    between atoms: _463  and  _464
REMARK  191  A    between atoms: _463  and  _466
REMARK  192  A    between atoms: _466  and  _467
REMARK  193  A    between atoms: _470  and  _472
REMARK  194  A    between atoms: _472  and  _473
REMARK  195  A    between atoms: _472  and  _475
REMARK  196  A    between atoms: _475  and  _476
REMARK  197  A    between atoms: _479  and  _481
REMARK  198  A    between atoms: _481  and  _482
REMARK  199  A    between atoms: _481  and  _484
REMARK  200  A    between atoms: _484  and  _485
REMARK  201  A    between atoms: _488  and  _490
REMARK  202  A    between atoms: _490  and  _491
REMARK  203  A    between atoms: _490  and  _493
REMARK  204  A    between atoms: _493  and  _494
REMARK  205  A    between atoms: _497  and  _499
REMARK  206  A    between atoms: _499  and  _500
REMARK  207  A    between atoms: _502  and  _504
REMARK  208  A    between atoms: _504  and  _505
REMARK  209  A    between atoms: _504  and  _507
REMARK  210  A    between atoms: _507  and  _508
REMARK  211  A    between atoms: _513  and  _515
REMARK  212  A    between atoms: _515  and  _516
REMARK  213  A    between atoms: _515  and  _518
REMARK  214  A    between atoms: _518  and  _519
REMARK  215  A    between atoms: _519  and  _520
REMARK  216  A    between atoms: _523  and  _525
REMARK  217  A    between atoms: _525  and  _526
REMARK  218  A    between atoms: _525  and  _528
REMARK  219  A    between atoms: _528  and  _529
REMARK  220  A    between atoms: _534  and  _536
REMARK  221  A    between atoms: _536  and  _537
REMARK  222  A    between atoms: _536  and  _539
REMARK  223  A    between atoms: _539  and  _540
REMARK  224  A    between atoms: _540  and  _541
REMARK  225  A    between atoms: _543  and  _545
REMARK  226  A    between atoms: _545  and  _546
REMARK  227  A    between atoms: _545  and  _548
REMARK  228  A    between atoms: _548  and  _549
REMARK  229  A    between atoms: _549  and  _550
REMARK  230  A    between atoms: _550  and  _551
REMARK  231  A    between atoms: _560  and  _562
REMARK  232  A    between atoms: _562  and  _563
REMARK  233  A    between atoms: _562  and  _565
REMARK  234  A    between atoms: _565  and  _566
REMARK  235  A    between atoms: _569  and  _571
REMARK  236  A    between atoms: _571  and  _572
REMARK  237  A    between atoms: _575  and  _577
REMARK  238  A    between atoms: _577  and  _578
REMARK  239  A    between atoms: _577  and  _580
REMARK  240  A    between atoms: _580  and  _581
REMARK  241  A    between atoms: _587  and  _589
REMARK  242  A    between atoms: _589  and  _590
REMARK  243  A    between atoms: _589  and  _592
REMARK  244  A    between atoms: _592  and  _593
REMARK  245  A    between atoms: _593  and  _594
REMARK  246  A    between atoms: _597  and  _599
REMARK  247  A    between atoms: _599  and  _600
REMARK  248  A    between atoms: _599  and  _602
REMARK  249  A    between atoms: _602  and  _603
REMARK  250  A    between atoms: _605  and  _607
REMARK  251  A    between atoms: _607  and  _608
REMARK  252  A    between atoms: _607  and  _610
REMARK  253  A    between atoms: _610  and  _611
REMARK  254  A    between atoms: _621  and  _623
REMARK  255  A    between atoms: _623  and  _624
REMARK  256  A    between atoms: _623  and  _626
REMARK  257  A    between atoms: _626  and  _627
REMARK  258  A    between atoms: _629  and  _631
REMARK  259  A    between atoms: _631  and  _632
REMARK  260  A    between atoms: _631  and  _634
REMARK  261  A    between atoms: _637  and  _639
REMARK  262  A    between atoms: _639  and  _640
REMARK  263  A    between atoms: _639  and  _642
REMARK  264  A    between atoms: _642  and  _643
REMARK  265  A    between atoms: _646  and  _648
REMARK  266  A    between atoms: _648  and  _649
REMARK  267  A    between atoms: _648  and  _651
REMARK  268  A    between atoms: _651  and  _652
REMARK                            x       y       z     vdW  Elec       q    Type
REMARK                         _______ _______ _______ _____ _____    ______ ____
ROOT
ATOM      1  O   HOH     1       2.432 -10.404   4.881  0.00  0.00    +0.000 OA
ENDROOT
TORSDOF 0
REMARK  Name = ../refined-set-2016/3f8c/3f8c_pocket.pdb
REMARK  268 active torsions:
REMARK  status: ('A' for Active; 'I' for Inactive)
REMARK    1  A    between atoms: _1  and  _5
REMARK    2  A    between atoms: _5  and  _6
REMARK    3  A    between atoms: _5  and  _8
REMARK    4  A    between atoms: _8  and  _9
REMARK    5  A    between atoms: _9  and  _10
REMARK    6  A    between atoms: _14  and  _15
REMARK    7  A    between atoms: _20  and  _22
REMARK    8  A    between atoms: _22  and  _23
REMARK    9  A    between atoms: _22  and  _25
REMARK   10  A    between atoms: _25  and  _26
REMARK   11  A    between atoms: _26  and  _27
REMARK   12  A    between atoms: _29  and  _31
REMARK   13  A    between atoms: _31  and  _32
REMARK   14  A    between atoms: _31  and  _34
REMARK   15  A    between atoms: _34  and  _35
REMARK   16  A    between atoms: _35  and  _36
REMARK   17  A    between atoms: _36  and  _37
REMARK   18  A    between atoms: _46  and  _48
REMARK   19  A    between atoms: _48  and  _49
REMARK   20  A    between atoms: _52  and  _54
REMARK   21  A    between atoms: _54  and  _55
REMARK   22  A    between atoms: _54  and  _57
REMARK   23  A    between atoms: _57  and  _58
REMARK   24  A    between atoms: _58  and  _59
REMARK   25  A    between atoms: _64  and  _66
REMARK   26  A    between atoms: _66  and  _67
REMARK   27  A    between atoms: _66  and  _69
REMARK   28  A    between atoms: _69  and  _70
REMARK   29  A    between atoms: _73  and  _75
REMARK   30  A    between atoms: _75  and  _76
REMARK   31  A    between atoms: _75  and  _78
REMARK   32  A    between atoms: _78  and  _79
REMARK   33  A    between atoms: _84  and  _86
REMARK   34  A    between atoms: _86  and  _87
REMARK   35  A    between atoms: _86  and  _89
REMARK   36  A    between atoms: _92  and  _94
REMARK   37  A    between atoms: _94  and  _95
REMARK   38  A    between atoms: _94  and  _97
REMARK   39  A    between atoms: _97  and  _98
REMARK   40  A    between atoms: _101  and  _103
REMARK   41  A    between atoms: _103  and  _104
REMARK   42  A    between atoms: _103  and  _106
REMARK   43  A    between atoms: _106  and  _107
REMARK   44  A    between atoms: _110  and  _112
REMARK   45  A    between atoms: _112  and  _113
REMARK   46  A    between atoms: _112  and  _115
REMARK   47  A    between atoms: _115  and  _116
REMARK   48  A    between atoms: _121  and  _123
REMARK   49  A    between atoms: _123  and  _124
REMARK   50  A    between atoms: _123  and  _126
REMARK   51  A    between atoms: _126  and  _127
REMARK   52  A    between atoms: _127  and  _128
REMARK   53  A    between atoms: _128  and  _129
REMARK   54  A    between atoms: _129  and  _130
REMARK   55  A    between atoms: _134  and  _136
REMARK   56  A    between atoms: _136  and  _137
REMARK   57  A    between atoms: _136  and  _139
REMARK   58  A    between atoms: _139  and  _140
REMARK   59  A    between atoms: _140  and  _141
REMARK   60  A    between atoms: _141  and  _142
REMARK   61  A    between atoms: _151  and  _153
REMARK   62  A    between atoms: _153  and  _154
REMARK   63  A    between atoms: _153  and  _156
REMARK   64  A    between atoms: _156  and  _157
REMARK   65  A    between atoms: _160  and  _162
REMARK   66  A    between atoms: _162  and  _163
REMARK   67  A    between atoms: _162  and  _165
REMARK   68  A    between atoms: _165  and  _166
REMARK   69  A    between atoms: _169  and  _171
REMARK   70  A    between atoms: _171  and  _172
REMARK   71  A    between atoms: _171  and  _174
REMARK   72  A    between atoms: _174  and  _175
REMARK   73  A    between atoms: _178  and  _180
REMARK   74  A    between atoms: _180  and  _181
REMARK   75  A    between atoms: _180  and  _183
REMARK   76  A    between atoms: _183  and  _184
REMARK   77  A    between atoms: _187  and  _189
REMARK   78  A    between atoms: _189  and  _190
REMARK   79  A    between atoms: _189  and  _192
REMARK   80  A    between atoms: _192  and  _193
REMARK   81  A    between atoms: _196  and  _198
REMARK   82  A    between atoms: _198  and  _199
REMARK   83  A    between atoms: _201  and  _203
REMARK   84  A    between atoms: _203  and  _204
REMARK   85  A    between atoms: _203  and  _206
REMARK   86  A    between atoms: _206  and  _207
REMARK   87  A    between atoms: _212  and  _214
REMARK   88  A    between atoms: _214  and  _215
REMARK   89  A    between atoms: _214  and  _217
REMARK   90  A    between atoms: _217  and  _218
REMARK   91  A    between atoms: _218  and  _219
REMARK   92  A    between atoms: _222  and  _224
REMARK   93  A    between atoms: _224  and  _225
REMARK   94  A    between atoms: _224  and  _227
REMARK   95  A    between atoms: _227  and  _228
REMARK   96  A    between atoms: _233  and  _235
REMARK   97  A    between atoms: _235  and  _236
REMARK   98  A    between atoms: _235  and  _238
REMARK   99  A    between atoms: _238  and  _239
REMARK  100  A    between atoms: _239  and  _240
REMARK  101  A    between atoms: _242  and  _244
REMARK  102  A    between atoms: _244  and  _245
REMARK  103  A    between atoms: _244  and  _247
REMARK  104  A    between atoms: _247  and  _248
REMARK  105  A    between atoms: _248  and  _249
REMARK  106  A    between atoms: _249  and  _250
REMARK  107  A    between atoms: _259  and  _261
REMARK  108  A    between atoms: _261  and  _262
REMARK  109  A    between atoms: _261  and  _264
REMARK  110  A    between atoms: _264  and  _265
REMARK  111  A    between atoms: _268  and  _270
REMARK  112  A    between atoms: _270  and  _271
REMARK  113  A    between atoms: _274  and  _276
REMARK  114  A    between atoms: _276  and  _277
REMARK  115  A    between atoms: _276  and  _279
REMARK  116  A    between atoms: _279  and  _280
REMARK  117  A    between atoms: _286  and  _288
REMARK  118  A    between atoms: _288  and  _289
REMARK  119  A    between atoms: _288  and  _291
REMARK  120  A    between atoms: _291  and  _292
REMARK  121  A    between atoms: _292  and  _293
REMARK  122  A    between atoms: _296  and  _298
REMARK  123  A    between atoms: _298  and  _299
REMARK  124  A    between atoms: _298  and  _301
REMARK  125  A    between atoms: _301  and  _302
REMARK  126  A    between atoms: _304  and  _306
REMARK  127  A    between atoms: _306  and  _307
REMARK  128  A    between atoms: _306  and  _309
REMARK  129  A    between atoms: _309  and  _310
REMARK  130  A    between atoms: _320  and  _322
REMARK  131  A    between atoms: _322  and  _323
REMARK  132  A    between atoms: _322  and  _325
REMARK  133  A    between atoms: _325  and  _326
REMARK  134  A    between atoms: _328  and  _330
REMARK  135  A    between atoms: _330  and  _331
REMARK  136  A    between atoms: _330  and  _333
REMARK  137  A    between atoms: _336  and  _338
REMARK  138  A    between atoms: _338  and  _339
REMARK  139  A    between atoms: _338  and  _341
REMARK  140  A    between atoms: _341  and  _342
REMARK  141  A    between atoms: _345  and  _347
REMARK  142  A    between atoms: _347  and  _348
REMARK  143  A    between atoms: _347  and  _350
REMARK  144  A    between atoms: _350  and  _351
REMARK  145  A    between atoms: _354  and  _358
REMARK  146  A    between atoms: _358  and  _359
REMARK  147  A    between atoms: _358  and  _361
REMARK  148  A    between atoms: _361  and  _362
REMARK  149  A    between atoms: _362  and  _363
REMARK  150  A    between atoms: _367  and  _368
REMARK  151  A    between atoms: _373  and  _375
REMARK  152  A    between atoms: _375  and  _376
REMARK  153  A    between atoms: _375  and  _378
REMARK  154  A    between atoms: _378  and  _379
REMARK  155  A    between atoms: _379  and  _380
REMARK  156  A    between atoms: _382  and  _384
REMARK  157  A    between atoms: _384  and  _385
REMARK  158  A    between atoms: _388  and  _390
REMARK  159  A    between atoms: _390  and  _391
REMARK  160  A    between atoms: _390  and  _393
REMARK  161  A    between atoms: _393  and  _394
REMARK  162  A    between atoms: _394  and  _395
REMARK  163  A    between atoms: _400  and  _402
REMARK  164  A    between atoms: _402  and  _403
REMARK  165  A    between atoms: _402  and  _405
REMARK  166  A    between atoms: _405  and  _406
REMARK  167  A    between atoms: _411  and  _413
REMARK  168  A    between atoms: _413  and  _414
REMARK  169  A    between atoms: _413  and  _416
REMARK  170  A    between atoms: _419  and  _421
REMARK  171  A    between atoms: _421  and  _422
REMARK  172  A    between atoms: _421  and  _424
REMARK  173  A    between atoms: _424  and  _425
REMARK  174  A    between atoms: _428  and  _430
REMARK  175  A    between atoms: _430  and  _431
REMARK  176  A    between atoms: _430  and  _433
REMARK  177  A    between atoms: _433  and  _434
REMARK  178  A    between atoms: _437  and  _439
REMARK  179  A    between atoms: _439  and  _440
REMARK  180  A    between atoms: _439  and  _442
REMARK  181  A    between atoms: _442  and  _443
REMARK  182  A    between atoms: _448  and  _450
REMARK  183  A    between atoms: _450  and  _451
REMARK  184  A    between atoms: _450  and  _453
REMARK  185  A    between atoms: _453  and  _454
REMARK  186  A    between atoms: _454  and  _455
REMARK  187  A    between atoms: _455  and  _456
REMARK  188  A    between atoms: _456  and  _457
REMARK  189  A    between atoms: _461  and  _463
REMARK  190  A    between atoms: _463  and  _464
REMARK  191  A    between atoms: _463  and  _466
REMARK  192  A    between atoms: _466  and  _467
REMARK  193  A    between atoms: _470  and  _472
REMARK  194  A    between atoms: _472  and  _473
REMARK  195  A    between atoms: _472  and  _475
REMARK  196  A    between atoms: _475  and  _476
REMARK  197  A    between atoms: _479  and  _481
REMARK  198  A    between atoms: _481  and  _482
REMARK  199  A    between atoms: _481  and  _484
REMARK  200  A    between atoms: _484  and  _485
REMARK  201  A    between atoms: _488  and  _490
REMARK  202  A    between atoms: _490  and  _491
REMARK  203  A    between atoms: _490  and  _493
REMARK  204  A    between atoms: _493  and  _494
REMARK  205  A    between atoms: _497  and  _499
REMARK  206  A    between atoms: _499  and  _500
REMARK  207  A    between atoms: _502  and  _504
REMARK  208  A    between atoms: _504  and  _505
REMARK  209  A    between atoms: _504  and  _507
REMARK  210  A    between atoms: _507  and  _508
REMARK  211  A    between atoms: _513  and  _515
REMARK  212  A    between atoms: _515  and  _516
REMARK  213  A    between atoms: _515  and  _518
REMARK  214  A    between atoms: _518  and  _519
REMARK  215  A    between atoms: _519  and  _520
REMARK  216  A    between atoms: _523  and  _525
REMARK  217  A    between atoms: _525  and  _526
REMARK  218  A    between atoms: _525  and  _528
REMARK  219  A    between atoms: _528  and  _529
REMARK  220  A    between atoms: _534  and  _536
REMARK  221  A    between atoms: _536  and  _537
REMARK  222  A    between atoms: _536  and  _539
REMARK  223  A    between atoms: _539  and  _540
REMARK  224  A    between atoms: _540  and  _541
REMARK  225  A    between atoms: _543  and  _545
REMARK  226  A    between atoms: _545  and  _546
REMARK  227  A    between atoms: _545  and  _548
REMARK  228  A    between atoms: _548  and  _549
REMARK  229  A    between atoms: _549  and  _550
REMARK  230  A    between atoms: _550  and  _551
REMARK  231  A    between atoms: _560  and  _562
REMARK  232  A    between atoms: _562  and  _563
REMARK  233  A    between atoms: _562  and  _565
REMARK  234  A    between atoms: _565  and  _566
REMARK  235  A    between atoms: _569  and  _571
REMARK  236  A    between atoms: _571  and  _572
REMARK  237  A    between atoms: _575  and  _577
REMARK  238  A    between atoms: _577  and  _578
REMARK  239  A    between atoms: _577  and  _580
REMARK  240  A    between atoms: _580  and  _581
REMARK  241  A    between atoms: _587  and  _589
REMARK  242  A    between atoms: _589  and  _590
REMARK  243  A    between atoms: _589  and  _592
REMARK  244  A    between atoms: _592  and  _593
REMARK  245  A    between atoms: _593  and  _594
REMARK  246  A    between atoms: _597  and  _599
REMARK  247  A    between atoms: _599  and  _600
REMARK  248  A    between atoms: _599  and  _602
REMARK  249  A    between atoms: _602  and  _603
REMARK  250  A    between atoms: _605  and  _607
REMARK  251  A    between atoms: _607  and  _608
REMARK  252  A    between atoms: _607  and  _610
REMARK  253  A    between atoms: _610  and  _611
REMARK  254  A    between atoms: _621  and  _623
REMARK  255  A    between atoms: _623  and  _624
REMARK  256  A    between atoms: _623  and  _626
REMARK  257  A    between atoms: _626  and  _627
REMARK  258  A    between atoms: _629  and  _631
REMARK  259  A    between atoms: _631  and  _632
REMARK  260  A    between atoms: _631  and  _634
REMARK  261  A    between atoms: _637  and  _639
REMARK  262  A    between atoms: _639  and  _640
REMARK  263  A    between atoms: _639  and  _642
REMARK  264  A    between atoms: _642  and  _643
REMARK  265  A    between atoms: _646  and  _648
REMARK  266  A    between atoms: _648  and  _649
REMARK  267  A    between atoms: _648  and  _651
REMARK  268  A    between atoms: _651  and  _652
REMARK                            x       y       z     vdW  Elec       q    Type
REMARK                         _______ _______ _______ _____ _____    ______ ____
ROOT
ATOM      1  O   HOH     1       5.407   0.002   1.725  0.00  0.00    +0.000 OA
ENDROOT
TORSDOF 0
REMARK  Name = ../refined-set-2016/3f8c/3f8c_pocket.pdb
REMARK  268 active torsions:
REMARK  status: ('A' for Active; 'I' for Inactive)
REMARK    1  A    between atoms: _1  and  _5
REMARK    2  A    between atoms: _5  and  _6
REMARK    3  A    between atoms: _5  and  _8
REMARK    4  A    between atoms: _8  and  _9
REMARK    5  A    between atoms: _9  and  _10
REMARK    6  A    between atoms: _14  and  _15
REMARK    7  A    between atoms: _20  and  _22
REMARK    8  A    between atoms: _22  and  _23
REMARK    9  A    between atoms: _22  and  _25
REMARK   10  A    between atoms: _25  and  _26
REMARK   11  A    between atoms: _26  and  _27
REMARK   12  A    between atoms: _29  and  _31
REMARK   13  A    between atoms: _31  and  _32
REMARK   14  A    between atoms: _31  and  _34
REMARK   15  A    between atoms: _34  and  _35
REMARK   16  A    between atoms: _35  and  _36
REMARK   17  A    between atoms: _36  and  _37
REMARK   18  A    between atoms: _46  and  _48
REMARK   19  A    between atoms: _48  and  _49
REMARK   20  A    between atoms: _52  and  _54
REMARK   21  A    between atoms: _54  and  _55
REMARK   22  A    between atoms: _54  and  _57
REMARK   23  A    between atoms: _57  and  _58
REMARK   24  A    between atoms: _58  and  _59
REMARK   25  A    between atoms: _64  and  _66
REMARK   26  A    between atoms: _66  and  _67
REMARK   27  A    between atoms: _66  and  _69
REMARK   28  A    between atoms: _69  and  _70
REMARK   29  A    between atoms: _73  and  _75
REMARK   30  A    between atoms: _75  and  _76
REMARK   31  A    between atoms: _75  and  _78
REMARK   32  A    between atoms: _78  and  _79
REMARK   33  A    between atoms: _84  and  _86
REMARK   34  A    between atoms: _86  and  _87
REMARK   35  A    between atoms: _86  and  _89
REMARK   36  A    between atoms: _92  and  _94
REMARK   37  A    between atoms: _94  and  _95
REMARK   38  A    between atoms: _94  and  _97
REMARK   39  A    between atoms: _97  and  _98
REMARK   40  A    between atoms: _101  and  _103
REMARK   41  A    between atoms: _103  and  _104
REMARK   42  A    between atoms: _103  and  _106
REMARK   43  A    between atoms: _106  and  _107
REMARK   44  A    between atoms: _110  and  _112
REMARK   45  A    between atoms: _112  and  _113
REMARK   46  A    between atoms: _112  and  _115
REMARK   47  A    between atoms: _115  and  _116
REMARK   48  A    between atoms: _121  and  _123
REMARK   49  A    between atoms: _123  and  _124
REMARK   50  A    between atoms: _123  and  _126
REMARK   51  A    between atoms: _126  and  _127
REMARK   52  A    between atoms: _127  and  _128
REMARK   53  A    between atoms: _128  and  _129
REMARK   54  A    between atoms: _129  and  _130
REMARK   55  A    between atoms: _134  and  _136
REMARK   56  A    between atoms: _136  and  _137
REMARK   57  A    between atoms: _136  and  _139
REMARK   58  A    between atoms: _139  and  _140
REMARK   59  A    between atoms: _140  and  _141
REMARK   60  A    between atoms: _141  and  _142
REMARK   61  A    between atoms: _151  and  _153
REMARK   62  A    between atoms: _153  and  _154
REMARK   63  A    between atoms: _153  and  _156
REMARK   64  A    between atoms: _156  and  _157
REMARK   65  A    between atoms: _160  and  _162
REMARK   66  A    between atoms: _162  and  _163
REMARK   67  A    between atoms: _162  and  _165
REMARK   68  A    between atoms: _165  and  _166
REMARK   69  A    between atoms: _169  and  _171
REMARK   70  A    between atoms: _171  and  _172
REMARK   71  A    between atoms: _171  and  _174
REMARK   72  A    between atoms: _174  and  _175
REMARK   73  A    between atoms: _178  and  _180
REMARK   74  A    between atoms: _180  and  _181
REMARK   75  A    between atoms: _180  and  _183
REMARK   76  A    between atoms: _183  and  _184
REMARK   77  A    between atoms: _187  and  _189
REMARK   78  A    between atoms: _189  and  _190
REMARK   79  A    between atoms: _189  and  _192
REMARK   80  A    between atoms: _192  and  _193
REMARK   81  A    between atoms: _196  and  _198
REMARK   82  A    between atoms: _198  and  _199
REMARK   83  A    between atoms: _201  and  _203
REMARK   84  A    between atoms: _203  and  _204
REMARK   85  A    between atoms: _203  and  _206
REMARK   86  A    between atoms: _206  and  _207
REMARK   87  A    between atoms: _212  and  _214
REMARK   88  A    between atoms: _214  and  _215
REMARK   89  A    between atoms: _214  and  _217
REMARK   90  A    between atoms: _217  and  _218
REMARK   91  A    between atoms: _218  and  _219
REMARK   92  A    between atoms: _222  and  _224
REMARK   93  A    between atoms: _224  and  _225
REMARK   94  A    between atoms: _224  and  _227
REMARK   95  A    between atoms: _227  and  _228
REMARK   96  A    between atoms: _233  and  _235
REMARK   97  A    between atoms: _235  and  _236
REMARK   98  A    between atoms: _235  and  _238
REMARK   99  A    between atoms: _238  and  _239
REMARK  100  A    between atoms: _239  and  _240
REMARK  101  A    between atoms: _242  and  _244
REMARK  102  A    between atoms: _244  and  _245
REMARK  103  A    between atoms: _244  and  _247
REMARK  104  A    between atoms: _247  and  _248
REMARK  105  A    between atoms: _248  and  _249
REMARK  106  A    between atoms: _249  and  _250
REMARK  107  A    between atoms: _259  and  _261
REMARK  108  A    between atoms: _261  and  _262
REMARK  109  A    between atoms: _261  and  _264
REMARK  110  A    between atoms: _264  and  _265
REMARK  111  A    between atoms: _268  and  _270
REMARK  112  A    between atoms: _270  and  _271
REMARK  113  A    between atoms: _274  and  _276
REMARK  114  A    between atoms: _276  and  _277
REMARK  115  A    between atoms: _276  and  _279
REMARK  116  A    between atoms: _279  and  _280
REMARK  117  A    between atoms: _286  and  _288
REMARK  118  A    between atoms: _288  and  _289
REMARK  119  A    between atoms: _288  and  _291
REMARK  120  A    between atoms: _291  and  _292
REMARK  121  A    between atoms: _292  and  _293
REMARK  122  A    between atoms: _296  and  _298
REMARK  123  A    between atoms: _298  and  _299
REMARK  124  A    between atoms: _298  and  _301
REMARK  125  A    between atoms: _301  and  _302
REMARK  126  A    between atoms: _304  and  _306
REMARK  127  A    between atoms: _306  and  _307
REMARK  128  A    between atoms: _306  and  _309
REMARK  129  A    between atoms: _309  and  _310
REMARK  130  A    between atoms: _320  and  _322
REMARK  131  A    between atoms: _322  and  _323
REMARK  132  A    between atoms: _322  and  _325
REMARK  133  A    between atoms: _325  and  _326
REMARK  134  A    between atoms: _328  and  _330
REMARK  135  A    between atoms: _330  and  _331
REMARK  136  A    between atoms: _330  and  _333
REMARK  137  A    between atoms: _336  and  _338
REMARK  138  A    between atoms: _338  and  _339
REMARK  139  A    between atoms: _338  and  _341
REMARK  140  A    between atoms: _341  and  _342
REMARK  141  A    between atoms: _345  and  _347
REMARK  142  A    between atoms: _347  and  _348
REMARK  143  A    between atoms: _347  and  _350
REMARK  144  A    between atoms: _350  and  _351
REMARK  145  A    between atoms: _354  and  _358
REMARK  146  A    between atoms: _358  and  _359
REMARK  147  A    between atoms: _358  and  _361
REMARK  148  A    between atoms: _361  and  _362
REMARK  149  A    between atoms: _362  and  _363
REMARK  150  A    between atoms: _367  and  _368
REMARK  151  A    between atoms: _373  and  _375
REMARK  152  A    between atoms: _375  and  _376
REMARK  153  A    between atoms: _375  and  _378
REMARK  154  A    between atoms: _378  and  _379
REMARK  155  A    between atoms: _379  and  _380
REMARK  156  A    between atoms: _382  and  _384
REMARK  157  A    between atoms: _384  and  _385
REMARK  158  A    between atoms: _388  and  _390
REMARK  159  A    between atoms: _390  and  _391
REMARK  160  A    between atoms: _390  and  _393
REMARK  161  A    between atoms: _393  and  _394
REMARK  162  A    between atoms: _394  and  _395
REMARK  163  A    between atoms: _400  and  _402
REMARK  164  A    between atoms: _402  and  _403
REMARK  165  A    between atoms: _402  and  _405
REMARK  166  A    between atoms: _405  and  _406
REMARK  167  A    between atoms: _411  and  _413
REMARK  168  A    between atoms: _413  and  _414
REMARK  169  A    between atoms: _413  and  _416
REMARK  170  A    between atoms: _419  and  _421
REMARK  171  A    between atoms: _421  and  _422
REMARK  172  A    between atoms: _421  and  _424
REMARK  173  A    between atoms: _424  and  _425
REMARK  174  A    between atoms: _428  and  _430
REMARK  175  A    between atoms: _430  and  _431
REMARK  176  A    between atoms: _430  and  _433
REMARK  177  A    between atoms: _433  and  _434
REMARK  178  A    between atoms: _437  and  _439
REMARK  179  A    between atoms: _439  and  _440
REMARK  180  A    between atoms: _439  and  _442
REMARK  181  A    between atoms: _442  and  _443
REMARK  182  A    between atoms: _448  and  _450
REMARK  183  A    between atoms: _450  and  _451
REMARK  184  A    between atoms: _450  and  _453
REMARK  185  A    between atoms: _453  and  _454
REMARK  186  A    between atoms: _454  and  _455
REMARK  187  A    between atoms: _455  and  _456
REMARK  188  A    between atoms: _456  and  _457
REMARK  189  A    between atoms: _461  and  _463
REMARK  190  A    between atoms: _463  and  _464
REMARK  191  A    between atoms: _463  and  _466
REMARK  192  A    between atoms: _466  and  _467
REMARK  193  A    between atoms: _470  and  _472
REMARK  194  A    between atoms: _472  and  _473
REMARK  195  A    between atoms: _472  and  _475
REMARK  196  A    between atoms: _475  and  _476
REMARK  197  A    between atoms: _479  and  _481
REMARK  198  A    between atoms: _481  and  _482
REMARK  199  A    between atoms: _481  and  _484
REMARK  200  A    between atoms: _484  and  _485
REMARK  201  A    between atoms: _488  and  _490
REMARK  202  A    between atoms: _490  and  _491
REMARK  203  A    between atoms: _490  and  _493
REMARK  204  A    between atoms: _493  and  _494
REMARK  205  A    between atoms: _497  and  _499
REMARK  206  A    between atoms: _499  and  _500
REMARK  207  A    between atoms: _502  and  _504
REMARK  208  A    between atoms: _504  and  _505
REMARK  209  A    between atoms: _504  and  _507
REMARK  210  A    between atoms: _507  and  _508
REMARK  211  A    between atoms: _513  and  _515
REMARK  212  A    between atoms: _515  and  _516
REMARK  213  A    between atoms: _515  and  _518
REMARK  214  A    between atoms: _518  and  _519
REMARK  215  A    between atoms: _519  and  _520
REMARK  216  A    between atoms: _523  and  _525
REMARK  217  A    between atoms: _525  and  _526
REMARK  218  A    between atoms: _525  and  _528
REMARK  219  A    between atoms: _528  and  _529
REMARK  220  A    between atoms: _534  and  _536
REMARK  221  A    between atoms: _536  and  _537
REMARK  222  A    between atoms: _536  and  _539
REMARK  223  A    between atoms: _539  and  _540
REMARK  224  A    between atoms: _540  and  _541
REMARK  225  A    between atoms: _543  and  _545
REMARK  226  A    between atoms: _545  and  _546
REMARK  227  A    between atoms: _545  and  _548
REMARK  228  A    between atoms: _548  and  _549
REMARK  229  A    between atoms: _549  and  _550
REMARK  230  A    between atoms: _550  and  _551
REMARK  231  A    between atoms: _560  and  _562
REMARK  232  A    between atoms: _562  and  _563
REMARK  233  A    between atoms: _562  and  _565
REMARK  234  A    between atoms: _565  and  _566
REMARK  235  A    between atoms: _569  and  _571
REMARK  236  A    between atoms: _571  and  _572
REMARK  237  A    between atoms: _575  and  _577
REMARK  238  A    between atoms: _577  and  _578
REMARK  239  A    between atoms: _577  and  _580
REMARK  240  A    between atoms: _580  and  _581
REMARK  241  A    between atoms: _587  and  _589
REMARK  242  A    between atoms: _589  and  _590
REMARK  243  A    between atoms: _589  and  _592
REMARK  244  A    between atoms: _592  and  _593
REMARK  245  A    between atoms: _593  and  _594
REMARK  246  A    between atoms: _597  and  _599
REMARK  247  A    between atoms: _599  and  _600
REMARK  248  A    between atoms: _599  and  _602
REMARK  249  A    between atoms: _602  and  _603
REMARK  250  A    between atoms: _605  and  _607
REMARK  251  A    between atoms: _607  and  _608
REMARK  252  A    between atoms: _607  and  _610
REMARK  253  A    between atoms: _610  and  _611
REMARK  254  A    between atoms: _621  and  _623
REMARK  255  A    between atoms: _623  and  _624
REMARK  256  A    between atoms: _623  and  _626
REMARK  257  A    between atoms: _626  and  _627
REMARK  258  A    between atoms: _629  and  _631
REMARK  259  A    between atoms: _631  and  _632
REMARK  260  A    between atoms: _631  and  _634
REMARK  261  A    between atoms: _637  and  _639
REMARK  262  A    between atoms: _639  and  _640
REMARK  263  A    between atoms: _639  and  _642
REMARK  264  A    between atoms: _642  and  _643
REMARK  265  A    between atoms: _646  and  _648
REMARK  266  A    between atoms: _648  and  _649
REMARK  267  A    between atoms: _648  and  _651
REMARK  268  A    between atoms: _651  and  _652
REMARK                            x       y       z     vdW  Elec       q    Type
REMARK                         _______ _______ _______ _____ _____    ______ ____
ROOT
ATOM      1  O   HOH     1      -0.298 -10.046   5.725  0.00  0.00    +0.000 OA
ENDROOT
TORSDOF 0
REMARK  Name = ../refined-set-2016/3f8c/3f8c_pocket.pdb
REMARK  268 active torsions:
REMARK  status: ('A' for Active; 'I' for Inactive)
REMARK    1  A    between atoms: _1  and  _5
REMARK    2  A    between atoms: _5  and  _6
REMARK    3  A    between atoms: _5  and  _8
REMARK    4  A    between atoms: _8  and  _9
REMARK    5  A    between atoms: _9  and  _10
REMARK    6  A    between atoms: _14  and  _15
REMARK    7  A    between atoms: _20  and  _22
REMARK    8  A    between atoms: _22  and  _23
REMARK    9  A    between atoms: _22  and  _25
REMARK   10  A    between atoms: _25  and  _26
REMARK   11  A    between atoms: _26  and  _27
REMARK   12  A    between atoms: _29  and  _31
REMARK   13  A    between atoms: _31  and  _32
REMARK   14  A    between atoms: _31  and  _34
REMARK   15  A    between atoms: _34  and  _35
REMARK   16  A    between atoms: _35  and  _36
REMARK   17  A    between atoms: _36  and  _37
REMARK   18  A    between atoms: _46  and  _48
REMARK   19  A    between atoms: _48  and  _49
REMARK   20  A    between atoms: _52  and  _54
REMARK   21  A    between atoms: _54  and  _55
REMARK   22  A    between atoms: _54  and  _57
REMARK   23  A    between atoms: _57  and  _58
REMARK   24  A    between atoms: _58  and  _59
REMARK   25  A    between atoms: _64  and  _66
REMARK   26  A    between atoms: _66  and  _67
REMARK   27  A    between atoms: _66  and  _69
REMARK   28  A    between atoms: _69  and  _70
REMARK   29  A    between atoms: _73  and  _75
REMARK   30  A    between atoms: _75  and  _76
REMARK   31  A    between atoms: _75  and  _78
REMARK   32  A    between atoms: _78  and  _79
REMARK   33  A    between atoms: _84  and  _86
REMARK   34  A    between atoms: _86  and  _87
REMARK   35  A    between atoms: _86  and  _89
REMARK   36  A    between atoms: _92  and  _94
REMARK   37  A    between atoms: _94  and  _95
REMARK   38  A    between atoms: _94  and  _97
REMARK   39  A    between atoms: _97  and  _98
REMARK   40  A    between atoms: _101  and  _103
REMARK   41  A    between atoms: _103  and  _104
REMARK   42  A    between atoms: _103  and  _106
REMARK   43  A    between atoms: _106  and  _107
REMARK   44  A    between atoms: _110  and  _112
REMARK   45  A    between atoms: _112  and  _113
REMARK   46  A    between atoms: _112  and  _115
REMARK   47  A    between atoms: _115  and  _116
REMARK   48  A    between atoms: _121  and  _123
REMARK   49  A    between atoms: _123  and  _124
REMARK   50  A    between atoms: _123  and  _126
REMARK   51  A    between atoms: _126  and  _127
REMARK   52  A    between atoms: _127  and  _128
REMARK   53  A    between atoms: _128  and  _129
REMARK   54  A    between atoms: _129  and  _130
REMARK   55  A    between atoms: _134  and  _136
REMARK   56  A    between atoms: _136  and  _137
REMARK   57  A    between atoms: _136  and  _139
REMARK   58  A    between atoms: _139  and  _140
REMARK   59  A    between atoms: _140  and  _141
REMARK   60  A    between atoms: _141  and  _142
REMARK   61  A    between atoms: _151  and  _153
REMARK   62  A    between atoms: _153  and  _154
REMARK   63  A    between atoms: _153  and  _156
REMARK   64  A    between atoms: _156  and  _157
REMARK   65  A    between atoms: _160  and  _162
REMARK   66  A    between atoms: _162  and  _163
REMARK   67  A    between atoms: _162  and  _165
REMARK   68  A    between atoms: _165  and  _166
REMARK   69  A    between atoms: _169  and  _171
REMARK   70  A    between atoms: _171  and  _172
REMARK   71  A    between atoms: _171  and  _174
REMARK   72  A    between atoms: _174  and  _175
REMARK   73  A    between atoms: _178  and  _180
REMARK   74  A    between atoms: _180  and  _181
REMARK   75  A    between atoms: _180  and  _183
REMARK   76  A    between atoms: _183  and  _184
REMARK   77  A    between atoms: _187  and  _189
REMARK   78  A    between atoms: _189  and  _190
REMARK   79  A    between atoms: _189  and  _192
REMARK   80  A    between atoms: _192  and  _193
REMARK   81  A    between atoms: _196  and  _198
REMARK   82  A    between atoms: _198  and  _199
REMARK   83  A    between atoms: _201  and  _203
REMARK   84  A    between atoms: _203  and  _204
REMARK   85  A    between atoms: _203  and  _206
REMARK   86  A    between atoms: _206  and  _207
REMARK   87  A    between atoms: _212  and  _214
REMARK   88  A    between atoms: _214  and  _215
REMARK   89  A    between atoms: _214  and  _217
REMARK   90  A    between atoms: _217  and  _218
REMARK   91  A    between atoms: _218  and  _219
REMARK   92  A    between atoms: _222  and  _224
REMARK   93  A    between atoms: _224  and  _225
REMARK   94  A    between atoms: _224  and  _227
REMARK   95  A    between atoms: _227  and  _228
REMARK   96  A    between atoms: _233  and  _235
REMARK   97  A    between atoms: _235  and  _236
REMARK   98  A    between atoms: _235  and  _238
REMARK   99  A    between atoms: _238  and  _239
REMARK  100  A    between atoms: _239  and  _240
REMARK  101  A    between atoms: _242  and  _244
REMARK  102  A    between atoms: _244  and  _245
REMARK  103  A    between atoms: _244  and  _247
REMARK  104  A    between atoms: _247  and  _248
REMARK  105  A    between atoms: _248  and  _249
REMARK  106  A    between atoms: _249  and  _250
REMARK  107  A    between atoms: _259  and  _261
REMARK  108  A    between atoms: _261  and  _262
REMARK  109  A    between atoms: _261  and  _264
REMARK  110  A    between atoms: _264  and  _265
REMARK  111  A    between atoms: _268  and  _270
REMARK  112  A    between atoms: _270  and  _271
REMARK  113  A    between atoms: _274  and  _276
REMARK  114  A    between atoms: _276  and  _277
REMARK  115  A    between atoms: _276  and  _279
REMARK  116  A    between atoms: _279  and  _280
REMARK  117  A    between atoms: _286  and  _288
REMARK  118  A    between atoms: _288  and  _289
REMARK  119  A    between atoms: _288  and  _291
REMARK  120  A    between atoms: _291  and  _292
REMARK  121  A    between atoms: _292  and  _293
REMARK  122  A    between atoms: _296  and  _298
REMARK  123  A    between atoms: _298  and  _299
REMARK  124  A    between atoms: _298  and  _301
REMARK  125  A    between atoms: _301  and  _302
REMARK  126  A    between atoms: _304  and  _306
REMARK  127  A    between atoms: _306  and  _307
REMARK  128  A    between atoms: _306  and  _309
REMARK  129  A    between atoms: _309  and  _310
REMARK  130  A    between atoms: _320  and  _322
REMARK  131  A    between atoms: _322  and  _323
REMARK  132  A    between atoms: _322  and  _325
REMARK  133  A    between atoms: _325  and  _326
REMARK  134  A    between atoms: _328  and  _330
REMARK  135  A    between atoms: _330  and  _331
REMARK  136  A    between atoms: _330  and  _333
REMARK  137  A    between atoms: _336  and  _338
REMARK  138  A    between atoms: _338  and  _339
REMARK  139  A    between atoms: _338  and  _341
REMARK  140  A    between atoms: _341  and  _342
REMARK  141  A    between atoms: _345  and  _347
REMARK  142  A    between atoms: _347  and  _348
REMARK  143  A    between atoms: _347  and  _350
REMARK  144  A    between atoms: _350  and  _351
REMARK  145  A    between atoms: _354  and  _358
REMARK  146  A    between atoms: _358  and  _359
REMARK  147  A    between atoms: _358  and  _361
REMARK  148  A    between atoms: _361  and  _362
REMARK  149  A    between atoms: _362  and  _363
REMARK  150  A    between atoms: _367  and  _368
REMARK  151  A    between atoms: _373  and  _375
REMARK  152  A    between atoms: _375  and  _376
REMARK  153  A    between atoms: _375  and  _378
REMARK  154  A    between atoms: _378  and  _379
REMARK  155  A    between atoms: _379  and  _380
REMARK  156  A    between atoms: _382  and  _384
REMARK  157  A    between atoms: _384  and  _385
REMARK  158  A    between atoms: _388  and  _390
REMARK  159  A    between atoms: _390  and  _391
REMARK  160  A    between atoms: _390  and  _393
REMARK  161  A    between atoms: _393  and  _394
REMARK  162  A    between atoms: _394  and  _395
REMARK  163  A    between atoms: _400  and  _402
REMARK  164  A    between atoms: _402  and  _403
REMARK  165  A    between atoms: _402  and  _405
REMARK  166  A    between atoms: _405  and  _406
REMARK  167  A    between atoms: _411  and  _413
REMARK  168  A    between atoms: _413  and  _414
REMARK  169  A    between atoms: _413  and  _416
REMARK  170  A    between atoms: _419  and  _421
REMARK  171  A    between atoms: _421  and  _422
REMARK  172  A    between atoms: _421  and  _424
REMARK  173  A    between atoms: _424  and  _425
REMARK  174  A    between atoms: _428  and  _430
REMARK  175  A    between atoms: _430  and  _431
REMARK  176  A    between atoms: _430  and  _433
REMARK  177  A    between atoms: _433  and  _434
REMARK  178  A    between atoms: _437  and  _439
REMARK  179  A    between atoms: _439  and  _440
REMARK  180  A    between atoms: _439  and  _442
REMARK  181  A    between atoms: _442  and  _443
REMARK  182  A    between atoms: _448  and  _450
REMARK  183  A    between atoms: _450  and  _451
REMARK  184  A    between atoms: _450  and  _453
REMARK  185  A    between atoms: _453  and  _454
REMARK  186  A    between atoms: _454  and  _455
REMARK  187  A    between atoms: _455  and  _456
REMARK  188  A    between atoms: _456  and  _457
REMARK  189  A    between atoms: _461  and  _463
REMARK  190  A    between atoms: _463  and  _464
REMARK  191  A    between atoms: _463  and  _466
REMARK  192  A    between atoms: _466  and  _467
REMARK  193  A    between atoms: _470  and  _472
REMARK  194  A    between atoms: _472  and  _473
REMARK  195  A    between atoms: _472  and  _475
REMARK  196  A    between atoms: _475  and  _476
REMARK  197  A    between atoms: _479  and  _481
REMARK  198  A    between atoms: _481  and  _482
REMARK  199  A    between atoms: _481  and  _484
REMARK  200  A    between atoms: _484  and  _485
REMARK  201  A    between atoms: _488  and  _490
REMARK  202  A    between atoms: _490  and  _491
REMARK  203  A    between atoms: _490  and  _493
REMARK  204  A    between atoms: _493  and  _494
REMARK  205  A    between atoms: _497  and  _499
REMARK  206  A    between atoms: _499  and  _500
REMARK  207  A    between atoms: _502  and  _504
REMARK  208  A    between atoms: _504  and  _505
REMARK  209  A    between atoms: _504  and  _507
REMARK  210  A    between atoms: _507  and  _508
REMARK  211  A    between atoms: _513  and  _515
REMARK  212  A    between atoms: _515  and  _516
REMARK  213  A    between atoms: _515  and  _518
REMARK  214  A    between atoms: _518  and  _519
REMARK  215  A    between atoms: _519  and  _520
REMARK  216  A    between atoms: _523  and  _525
REMARK  217  A    between atoms: _525  and  _526
REMARK  218  A    between atoms: _525  and  _528
REMARK  219  A    between atoms: _528  and  _529
REMARK  220  A    between atoms: _534  and  _536
REMARK  221  A    between atoms: _536  and  _537
REMARK  222  A    between atoms: _536  and  _539
REMARK  223  A    between atoms: _539  and  _540
REMARK  224  A    between atoms: _540  and  _541
REMARK  225  A    between atoms: _543  and  _545
REMARK  226  A    between atoms: _545  and  _546
REMARK  227  A    between atoms: _545  and  _548
REMARK  228  A    between atoms: _548  and  _549
REMARK  229  A    between atoms: _549  and  _550
REMARK  230  A    between atoms: _550  and  _551
REMARK  231  A    between atoms: _560  and  _562
REMARK  232  A    between atoms: _562  and  _563
REMARK  233  A    between atoms: _562  and  _565
REMARK  234  A    between atoms: _565  and  _566
REMARK  235  A    between atoms: _569  and  _571
REMARK  236  A    between atoms: _571  and  _572
REMARK  237  A    between atoms: _575  and  _577
REMARK  238  A    between atoms: _577  and  _578
REMARK  239  A    between atoms: _577  and  _580
REMARK  240  A    between atoms: _580  and  _581
REMARK  241  A    between atoms: _587  and  _589
REMARK  242  A    between atoms: _589  and  _590
REMARK  243  A    between atoms: _589  and  _592
REMARK  244  A    between atoms: _592  and  _593
REMARK  245  A    between atoms: _593  and  _594
REMARK  246  A    between atoms: _597  and  _599
REMARK  247  A    between atoms: _599  and  _600
REMARK  248  A    between atoms: _599  and  _602
REMARK  249  A    between atoms: _602  and  _603
REMARK  250  A    between atoms: _605  and  _607
REMARK  251  A    between atoms: _607  and  _608
REMARK  252  A    between atoms: _607  and  _610
REMARK  253  A    between atoms: _610  and  _611
REMARK  254  A    between atoms: _621  and  _623
REMARK  255  A    between atoms: _623  and  _624
REMARK  256  A    between atoms: _623  and  _626
REMARK  257  A    between atoms: _626  and  _627
REMARK  258  A    between atoms: _629  and  _631
REMARK  259  A    between atoms: _631  and  _632
REMARK  260  A    between atoms: _631  and  _634
REMARK  261  A    between atoms: _637  and  _639
REMARK  262  A    between atoms: _639  and  _640
REMARK  263  A    between atoms: _639  and  _642
REMARK  264  A    between atoms: _642  and  _643
REMARK  265  A    between atoms: _646  and  _648
REMARK  266  A    between atoms: _648  and  _649
REMARK  267  A    between atoms: _648  and  _651
REMARK  268  A    between atoms: _651  and  _652
REMARK                            x       y       z     vdW  Elec       q    Type
REMARK                         _______ _______ _______ _____ _____    ______ ____
ROOT
ATOM      1  O   HOH     1      -4.128  -6.679   3.963  0.00  0.00    +0.000 OA
ENDROOT
TORSDOF 0
REMARK  Name = ../refined-set-2016/3f8c/3f8c_pocket.pdb
REMARK  268 active torsions:
REMARK  status: ('A' for Active; 'I' for Inactive)
REMARK    1  A    between atoms: _1  and  _5
REMARK    2  A    between atoms: _5  and  _6
REMARK    3  A    between atoms: _5  and  _8
REMARK    4  A    between atoms: _8  and  _9
REMARK    5  A    between atoms: _9  and  _10
REMARK    6  A    between atoms: _14  and  _15
REMARK    7  A    between atoms: _20  and  _22
REMARK    8  A    between atoms: _22  and  _23
REMARK    9  A    between atoms: _22  and  _25
REMARK   10  A    between atoms: _25  and  _26
REMARK   11  A    between atoms: _26  and  _27
REMARK   12  A    between atoms: _29  and  _31
REMARK   13  A    between atoms: _31  and  _32
REMARK   14  A    between atoms: _31  and  _34
REMARK   15  A    between atoms: _34  and  _35
REMARK   16  A    between atoms: _35  and  _36
REMARK   17  A    between atoms: _36  and  _37
REMARK   18  A    between atoms: _46  and  _48
REMARK   19  A    between atoms: _48  and  _49
REMARK   20  A    between atoms: _52  and  _54
REMARK   21  A    between atoms: _54  and  _55
REMARK   22  A    between atoms: _54  and  _57
REMARK   23  A    between atoms: _57  and  _58
REMARK   24  A    between atoms: _58  and  _59
REMARK   25  A    between atoms: _64  and  _66
REMARK   26  A    between atoms: _66  and  _67
REMARK   27  A    between atoms: _66  and  _69
REMARK   28  A    between atoms: _69  and  _70
REMARK   29  A    between atoms: _73  and  _75
REMARK   30  A    between atoms: _75  and  _76
REMARK   31  A    between atoms: _75  and  _78
REMARK   32  A    between atoms: _78  and  _79
REMARK   33  A    between atoms: _84  and  _86
REMARK   34  A    between atoms: _86  and  _87
REMARK   35  A    between atoms: _86  and  _89
REMARK   36  A    between atoms: _92  and  _94
REMARK   37  A    between atoms: _94  and  _95
REMARK   38  A    between atoms: _94  and  _97
REMARK   39  A    between atoms: _97  and  _98
REMARK   40  A    between atoms: _101  and  _103
REMARK   41  A    between atoms: _103  and  _104
REMARK   42  A    between atoms: _103  and  _106
REMARK   43  A    between atoms: _106  and  _107
REMARK   44  A    between atoms: _110  and  _112
REMARK   45  A    between atoms: _112  and  _113
REMARK   46  A    between atoms: _112  and  _115
REMARK   47  A    between atoms: _115  and  _116
REMARK   48  A    between atoms: _121  and  _123
REMARK   49  A    between atoms: _123  and  _124
REMARK   50  A    between atoms: _123  and  _126
REMARK   51  A    between atoms: _126  and  _127
REMARK   52  A    between atoms: _127  and  _128
REMARK   53  A    between atoms: _128  and  _129
REMARK   54  A    between atoms: _129  and  _130
REMARK   55  A    between atoms: _134  and  _136
REMARK   56  A    between atoms: _136  and  _137
REMARK   57  A    between atoms: _136  and  _139
REMARK   58  A    between atoms: _139  and  _140
REMARK   59  A    between atoms: _140  and  _141
REMARK   60  A    between atoms: _141  and  _142
REMARK   61  A    between atoms: _151  and  _153
REMARK   62  A    between atoms: _153  and  _154
REMARK   63  A    between atoms: _153  and  _156
REMARK   64  A    between atoms: _156  and  _157
REMARK   65  A    between atoms: _160  and  _162
REMARK   66  A    between atoms: _162  and  _163
REMARK   67  A    between atoms: _162  and  _165
REMARK   68  A    between atoms: _165  and  _166
REMARK   69  A    between atoms: _169  and  _171
REMARK   70  A    between atoms: _171  and  _172
REMARK   71  A    between atoms: _171  and  _174
REMARK   72  A    between atoms: _174  and  _175
REMARK   73  A    between atoms: _178  and  _180
REMARK   74  A    between atoms: _180  and  _181
REMARK   75  A    between atoms: _180  and  _183
REMARK   76  A    between atoms: _183  and  _184
REMARK   77  A    between atoms: _187  and  _189
REMARK   78  A    between atoms: _189  and  _190
REMARK   79  A    between atoms: _189  and  _192
REMARK   80  A    between atoms: _192  and  _193
REMARK   81  A    between atoms: _196  and  _198
REMARK   82  A    between atoms: _198  and  _199
REMARK   83  A    between atoms: _201  and  _203
REMARK   84  A    between atoms: _203  and  _204
REMARK   85  A    between atoms: _203  and  _206
REMARK   86  A    between atoms: _206  and  _207
REMARK   87  A    between atoms: _212  and  _214
REMARK   88  A    between atoms: _214  and  _215
REMARK   89  A    between atoms: _214  and  _217
REMARK   90  A    between atoms: _217  and  _218
REMARK   91  A    between atoms: _218  and  _219
REMARK   92  A    between atoms: _222  and  _224
REMARK   93  A    between atoms: _224  and  _225
REMARK   94  A    between atoms: _224  and  _227
REMARK   95  A    between atoms: _227  and  _228
REMARK   96  A    between atoms: _233  and  _235
REMARK   97  A    between atoms: _235  and  _236
REMARK   98  A    between atoms: _235  and  _238
REMARK   99  A    between atoms: _238  and  _239
REMARK  100  A    between atoms: _239  and  _240
REMARK  101  A    between atoms: _242  and  _244
REMARK  102  A    between atoms: _244  and  _245
REMARK  103  A    between atoms: _244  and  _247
REMARK  104  A    between atoms: _247  and  _248
REMARK  105  A    between atoms: _248  and  _249
REMARK  106  A    between atoms: _249  and  _250
REMARK  107  A    between atoms: _259  and  _261
REMARK  108  A    between atoms: _261  and  _262
REMARK  109  A    between atoms: _261  and  _264
REMARK  110  A    between atoms: _264  and  _265
REMARK  111  A    between atoms: _268  and  _270
REMARK  112  A    between atoms: _270  and  _271
REMARK  113  A    between atoms: _274  and  _276
REMARK  114  A    between atoms: _276  and  _277
REMARK  115  A    between atoms: _276  and  _279
REMARK  116  A    between atoms: _279  and  _280
REMARK  117  A    between atoms: _286  and  _288
REMARK  118  A    between atoms: _288  and  _289
REMARK  119  A    between atoms: _288  and  _291
REMARK  120  A    between atoms: _291  and  _292
REMARK  121  A    between atoms: _292  and  _293
REMARK  122  A    between atoms: _296  and  _298
REMARK  123  A    between atoms: _298  and  _299
REMARK  124  A    between atoms: _298  and  _301
REMARK  125  A    between atoms: _301  and  _302
REMARK  126  A    between atoms: _304  and  _306
REMARK  127  A    between atoms: _306  and  _307
REMARK  128  A    between atoms: _306  and  _309
REMARK  129  A    between atoms: _309  and  _310
REMARK  130  A    between atoms: _320  and  _322
REMARK  131  A    between atoms: _322  and  _323
REMARK  132  A    between atoms: _322  and  _325
REMARK  133  A    between atoms: _325  and  _326
REMARK  134  A    between atoms: _328  and  _330
REMARK  135  A    between atoms: _330  and  _331
REMARK  136  A    between atoms: _330  and  _333
REMARK  137  A    between atoms: _336  and  _338
REMARK  138  A    between atoms: _338  and  _339
REMARK  139  A    between atoms: _338  and  _341
REMARK  140  A    between atoms: _341  and  _342
REMARK  141  A    between atoms: _345  and  _347
REMARK  142  A    between atoms: _347  and  _348
REMARK  143  A    between atoms: _347  and  _350
REMARK  144  A    between atoms: _350  and  _351
REMARK  145  A    between atoms: _354  and  _358
REMARK  146  A    between atoms: _358  and  _359
REMARK  147  A    between atoms: _358  and  _361
REMARK  148  A    between atoms: _361  and  _362
REMARK  149  A    between atoms: _362  and  _363
REMARK  150  A    between atoms: _367  and  _368
REMARK  151  A    between atoms: _373  and  _375
REMARK  152  A    between atoms: _375  and  _376
REMARK  153  A    between atoms: _375  and  _378
REMARK  154  A    between atoms: _378  and  _379
REMARK  155  A    between atoms: _379  and  _380
REMARK  156  A    between atoms: _382  and  _384
REMARK  157  A    between atoms: _384  and  _385
REMARK  158  A    between atoms: _388  and  _390
REMARK  159  A    between atoms: _390  and  _391
REMARK  160  A    between atoms: _390  and  _393
REMARK  161  A    between atoms: _393  and  _394
REMARK  162  A    between atoms: _394  and  _395
REMARK  163  A    between atoms: _400  and  _402
REMARK  164  A    between atoms: _402  and  _403
REMARK  165  A    between atoms: _402  and  _405
REMARK  166  A    between atoms: _405  and  _406
REMARK  167  A    between atoms: _411  and  _413
REMARK  168  A    between atoms: _413  and  _414
REMARK  169  A    between atoms: _413  and  _416
REMARK  170  A    between atoms: _419  and  _421
REMARK  171  A    between atoms: _421  and  _422
REMARK  172  A    between atoms: _421  and  _424
REMARK  173  A    between atoms: _424  and  _425
REMARK  174  A    between atoms: _428  and  _430
REMARK  175  A    between atoms: _430  and  _431
REMARK  176  A    between atoms: _430  and  _433
REMARK  177  A    between atoms: _433  and  _434
REMARK  178  A    between atoms: _437  and  _439
REMARK  179  A    between atoms: _439  and  _440
REMARK  180  A    between atoms: _439  and  _442
REMARK  181  A    between atoms: _442  and  _443
REMARK  182  A    between atoms: _448  and  _450
REMARK  183  A    between atoms: _450  and  _451
REMARK  184  A    between atoms: _450  and  _453
REMARK  185  A    between atoms: _453  and  _454
REMARK  186  A    between atoms: _454  and  _455
REMARK  187  A    between atoms: _455  and  _456
REMARK  188  A    between atoms: _456  and  _457
REMARK  189  A    between atoms: _461  and  _463
REMARK  190  A    between atoms: _463  and  _464
REMARK  191  A    between atoms: _463  and  _466
REMARK  192  A    between atoms: _466  and  _467
REMARK  193  A    between atoms: _470  and  _472
REMARK  194  A    between atoms: _472  and  _473
REMARK  195  A    between atoms: _472  and  _475
REMARK  196  A    between atoms: _475  and  _476
REMARK  197  A    between atoms: _479  and  _481
REMARK  198  A    between atoms: _481  and  _482
REMARK  199  A    between atoms: _481  and  _484
REMARK  200  A    between atoms: _484  and  _485
REMARK  201  A    between atoms: _488  and  _490
REMARK  202  A    between atoms: _490  and  _491
REMARK  203  A    between atoms: _490  and  _493
REMARK  204  A    between atoms: _493  and  _494
REMARK  205  A    between atoms: _497  and  _499
REMARK  206  A    between atoms: _499  and  _500
REMARK  207  A    between atoms: _502  and  _504
REMARK  208  A    between atoms: _504  and  _505
REMARK  209  A    between atoms: _504  and  _507
REMARK  210  A    between atoms: _507  and  _508
REMARK  211  A    between atoms: _513  and  _515
REMARK  212  A    between atoms: _515  and  _516
REMARK  213  A    between atoms: _515  and  _518
REMARK  214  A    between atoms: _518  and  _519
REMARK  215  A    between atoms: _519  and  _520
REMARK  216  A    between atoms: _523  and  _525
REMARK  217  A    between atoms: _525  and  _526
REMARK  218  A    between atoms: _525  and  _528
REMARK  219  A    between atoms: _528  and  _529
REMARK  220  A    between atoms: _534  and  _536
REMARK  221  A    between atoms: _536  and  _537
REMARK  222  A    between atoms: _536  and  _539
REMARK  223  A    between atoms: _539  and  _540
REMARK  224  A    between atoms: _540  and  _541
REMARK  225  A    between atoms: _543  and  _545
REMARK  226  A    between atoms: _545  and  _546
REMARK  227  A    between atoms: _545  and  _548
REMARK  228  A    between atoms: _548  and  _549
REMARK  229  A    between atoms: _549  and  _550
REMARK  230  A    between atoms: _550  and  _551
REMARK  231  A    between atoms: _560  and  _562
REMARK  232  A    between atoms: _562  and  _563
REMARK  233  A    between atoms: _562  and  _565
REMARK  234  A    between atoms: _565  and  _566
REMARK  235  A    between atoms: _569  and  _571
REMARK  236  A    between atoms: _571  and  _572
REMARK  237  A    between atoms: _575  and  _577
REMARK  238  A    between atoms: _577  and  _578
REMARK  239  A    between atoms: _577  and  _580
REMARK  240  A    between atoms: _580  and  _581
REMARK  241  A    between atoms: _587  and  _589
REMARK  242  A    between atoms: _589  and  _590
REMARK  243  A    between atoms: _589  and  _592
REMARK  244  A    between atoms: _592  and  _593
REMARK  245  A    between atoms: _593  and  _594
REMARK  246  A    between atoms: _597  and  _599
REMARK  247  A    between atoms: _599  and  _600
REMARK  248  A    between atoms: _599  and  _602
REMARK  249  A    between atoms: _602  and  _603
REMARK  250  A    between atoms: _605  and  _607
REMARK  251  A    between atoms: _607  and  _608
REMARK  252  A    between atoms: _607  and  _610
REMARK  253  A    between atoms: _610  and  _611
REMARK  254  A    between atoms: _621  and  _623
REMARK  255  A    between atoms: _623  and  _624
REMARK  256  A    between atoms: _623  and  _626
REMARK  257  A    between atoms: _626  and  _627
REMARK  258  A    between atoms: _629  and  _631
REMARK  259  A    between atoms: _631  and  _632
REMARK  260  A    between atoms: _631  and  _634
REMARK  261  A    between atoms: _637  and  _639
REMARK  262  A    between atoms: _639  and  _640
REMARK  263  A    between atoms: _639  and  _642
REMARK  264  A    between atoms: _642  and  _643
REMARK  265  A    between atoms: _646  and  _648
REMARK  266  A    between atoms: _648  and  _649
REMARK  267  A    between atoms: _648  and  _651
REMARK  268  A    between atoms: _651  and  _652
REMARK                            x       y       z     vdW  Elec       q    Type
REMARK                         _______ _______ _______ _____ _____    ______ ____
ROOT
ATOM      1  O   HOH     1       3.223  -1.233   7.624  0.00  0.00    +0.000 OA
ENDROOT
TORSDOF 0
