REMARK  Name = ../refined-set-2016/2p4y/2p4y_pocket.pdb
REMARK  273 active torsions:
REMARK  status: ('A' for Active; 'I' for Inactive)
REMARK    1  A    between atoms: _1  and  _3
REMARK    2  A    between atoms: _3  and  _4
REMARK    3  A    between atoms: _3  and  _6
REMARK    4  A    between atoms: _6  and  _7
REMARK    5  A    between atoms: _12  and  _13
REMARK    6  A    between atoms: _15  and  _17
REMARK    7  A    between atoms: _17  and  _18
REMARK    8  A    between atoms: _17  and  _20
REMARK    9  A    between atoms: _20  and  _21
REMARK   10  A    between atoms: _23  and  _25
REMARK   11  A    between atoms: _25  and  _26
REMARK   12  A    between atoms: _25  and  _28
REMARK   13  A    between atoms: _28  and  _29
REMARK   14  A    between atoms: _36  and  _37
REMARK   15  A    between atoms: _42  and  _44
REMARK   16  A    between atoms: _44  and  _45
REMARK   17  A    between atoms: _44  and  _47
REMARK   18  A    between atoms: _47  and  _48
REMARK   19  A    between atoms: _51  and  _53
REMARK   20  A    between atoms: _53  and  _54
REMARK   21  A    between atoms: _53  and  _56
REMARK   22  A    between atoms: _56  and  _57
REMARK   23  A    between atoms: _60  and  _62
REMARK   24  A    between atoms: _62  and  _63
REMARK   25  A    between atoms: _62  and  _65
REMARK   26  A    between atoms: _65  and  _66
REMARK   27  A    between atoms: _69  and  _71
REMARK   28  A    between atoms: _71  and  _72
REMARK   29  A    between atoms: _71  and  _74
REMARK   30  A    between atoms: _74  and  _75
REMARK   31  A    between atoms: _75  and  _76
REMARK   32  A    between atoms: _76  and  _77
REMARK   33  A    between atoms: _86  and  _88
REMARK   34  A    between atoms: _88  and  _89
REMARK   35  A    between atoms: _88  and  _91
REMARK   36  A    between atoms: _91  and  _92
REMARK   37  A    between atoms: _95  and  _97
REMARK   38  A    between atoms: _97  and  _98
REMARK   39  A    between atoms: _97  and  _100
REMARK   40  A    between atoms: _100  and  _101
REMARK   41  A    between atoms: _107  and  _109
REMARK   42  A    between atoms: _109  and  _110
REMARK   43  A    between atoms: _109  and  _112
REMARK   44  A    between atoms: _112  and  _113
REMARK   45  A    between atoms: _113  and  _114
REMARK   46  A    between atoms: _119  and  _121
REMARK   47  A    between atoms: _121  and  _122
REMARK   48  A    between atoms: _124  and  _126
REMARK   49  A    between atoms: _126  and  _127
REMARK   50  A    between atoms: _126  and  _129
REMARK   51  A    between atoms: _131  and  _133
REMARK   52  A    between atoms: _133  and  _134
REMARK   53  A    between atoms: _133  and  _136
REMARK   54  A    between atoms: _136  and  _137
REMARK   55  A    between atoms: _137  and  _138
REMARK   56  A    between atoms: _143  and  _145
REMARK   57  A    between atoms: _145  and  _146
REMARK   58  A    between atoms: _145  and  _148
REMARK   59  A    between atoms: _148  and  _149
REMARK   60  A    between atoms: _155  and  _157
REMARK   61  A    between atoms: _157  and  _158
REMARK   62  A    between atoms: _157  and  _160
REMARK   63  A    between atoms: _160  and  _161
REMARK   64  A    between atoms: _161  and  _162
REMARK   65  A    between atoms: _162  and  _163
REMARK   66  A    between atoms: _172  and  _174
REMARK   67  A    between atoms: _174  and  _175
REMARK   68  A    between atoms: _174  and  _177
REMARK   69  A    between atoms: _177  and  _178
REMARK   70  A    between atoms: _180  and  _182
REMARK   71  A    between atoms: _182  and  _183
REMARK   72  A    between atoms: _182  and  _185
REMARK   73  A    between atoms: _188  and  _190
REMARK   74  A    between atoms: _190  and  _191
REMARK   75  A    between atoms: _190  and  _193
REMARK   76  A    between atoms: _193  and  _194
REMARK   77  A    between atoms: _194  and  _195
REMARK   78  A    between atoms: _198  and  _200
REMARK   79  A    between atoms: _200  and  _201
REMARK   80  A    between atoms: _204  and  _206
REMARK   81  A    between atoms: _206  and  _207
REMARK   82  A    between atoms: _206  and  _209
REMARK   83  A    between atoms: _212  and  _214
REMARK   84  A    between atoms: _214  and  _215
REMARK   85  A    between atoms: _214  and  _217
REMARK   86  A    between atoms: _217  and  _218
REMARK   87  A    between atoms: _218  and  _219
REMARK   88  A    between atoms: _224  and  _226
REMARK   89  A    between atoms: _226  and  _227
REMARK   90  A    between atoms: _226  and  _229
REMARK   91  A    between atoms: _229  and  _230
REMARK   92  A    between atoms: _230  and  _231
REMARK   93  A    between atoms: _234  and  _236
REMARK   94  A    between atoms: _236  and  _237
REMARK   95  A    between atoms: _236  and  _239
REMARK   96  A    between atoms: _239  and  _240
REMARK   97  A    between atoms: _243  and  _245
REMARK   98  A    between atoms: _245  and  _246
REMARK   99  A    between atoms: _245  and  _248
REMARK  100  A    between atoms: _248  and  _249
REMARK  101  A    between atoms: _252  and  _254
REMARK  102  A    between atoms: _254  and  _255
REMARK  103  A    between atoms: _254  and  _257
REMARK  104  A    between atoms: _257  and  _258
REMARK  105  A    between atoms: _263  and  _264
REMARK  106  A    between atoms: _266  and  _268
REMARK  107  A    between atoms: _268  and  _269
REMARK  108  A    between atoms: _268  and  _271
REMARK  109  A    between atoms: _274  and  _276
REMARK  110  A    between atoms: _276  and  _277
REMARK  111  A    between atoms: _276  and  _279
REMARK  112  A    between atoms: _279  and  _280
REMARK  113  A    between atoms: _285  and  _287
REMARK  114  A    between atoms: _287  and  _288
REMARK  115  A    between atoms: _287  and  _290
REMARK  116  A    between atoms: _290  and  _291
REMARK  117  A    between atoms: _294  and  _296
REMARK  118  A    between atoms: _296  and  _297
REMARK  119  A    between atoms: _296  and  _299
REMARK  120  A    between atoms: _299  and  _300
REMARK  121  A    between atoms: _303  and  _305
REMARK  122  A    between atoms: _305  and  _306
REMARK  123  A    between atoms: _305  and  _308
REMARK  124  A    between atoms: _308  and  _309
REMARK  125  A    between atoms: _314  and  _315
REMARK  126  A    between atoms: _317  and  _319
REMARK  127  A    between atoms: _319  and  _320
REMARK  128  A    between atoms: _319  and  _322
REMARK  129  A    between atoms: _322  and  _323
REMARK  130  A    between atoms: _326  and  _328
REMARK  131  A    between atoms: _328  and  _329
REMARK  132  A    between atoms: _328  and  _331
REMARK  133  A    between atoms: _331  and  _332
REMARK  134  A    between atoms: _332  and  _333
REMARK  135  A    between atoms: _335  and  _337
REMARK  136  A    between atoms: _337  and  _338
REMARK  137  A    between atoms: _337  and  _340
REMARK  138  A    between atoms: _340  and  _341
REMARK  139  A    between atoms: _344  and  _346
REMARK  140  A    between atoms: _346  and  _347
REMARK  141  A    between atoms: _350  and  _352
REMARK  142  A    between atoms: _352  and  _353
REMARK  143  A    between atoms: _352  and  _355
REMARK  144  A    between atoms: _355  and  _356
REMARK  145  A    between atoms: _358  and  _360
REMARK  146  A    between atoms: _360  and  _361
REMARK  147  A    between atoms: _360  and  _363
REMARK  148  A    between atoms: _363  and  _364
REMARK  149  A    between atoms: _367  and  _369
REMARK  150  A    between atoms: _369  and  _370
REMARK  151  A    between atoms: _369  and  _372
REMARK  152  A    between atoms: _372  and  _373
REMARK  153  A    between atoms: _373  and  _374
REMARK  154  A    between atoms: _376  and  _378
REMARK  155  A    between atoms: _378  and  _379
REMARK  156  A    between atoms: _381  and  _383
REMARK  157  A    between atoms: _383  and  _384
REMARK  158  A    between atoms: _383  and  _386
REMARK  159  A    between atoms: _389  and  _391
REMARK  160  A    between atoms: _391  and  _392
REMARK  161  A    between atoms: _391  and  _394
REMARK  162  A    between atoms: _394  and  _395
REMARK  163  A    between atoms: _398  and  _400
REMARK  164  A    between atoms: _400  and  _401
REMARK  165  A    between atoms: _400  and  _403
REMARK  166  A    between atoms: _403  and  _404
REMARK  167  A    between atoms: _407  and  _409
REMARK  168  A    between atoms: _409  and  _410
REMARK  169  A    between atoms: _409  and  _412
REMARK  170  A    between atoms: _412  and  _413
REMARK  171  A    between atoms: _415  and  _417
REMARK  172  A    between atoms: _417  and  _418
REMARK  173  A    between atoms: _417  and  _420
REMARK  174  A    between atoms: _420  and  _421
REMARK  175  A    between atoms: _421  and  _422
REMARK  176  A    between atoms: _425  and  _427
REMARK  177  A    between atoms: _427  and  _428
REMARK  178  A    between atoms: _430  and  _432
REMARK  179  A    between atoms: _432  and  _433
REMARK  180  A    between atoms: _432  and  _435
REMARK  181  A    between atoms: _435  and  _436
REMARK  182  A    between atoms: _436  and  _437
REMARK  183  A    between atoms: _442  and  _444
REMARK  184  A    between atoms: _444  and  _445
REMARK  185  A    between atoms: _447  and  _449
REMARK  186  A    between atoms: _449  and  _450
REMARK  187  A    between atoms: _449  and  _452
REMARK  188  A    between atoms: _452  and  _453
REMARK  189  A    between atoms: _459  and  _461
REMARK  190  A    between atoms: _461  and  _462
REMARK  191  A    between atoms: _461  and  _464
REMARK  192  A    between atoms: _464  and  _465
REMARK  193  A    between atoms: _465  and  _466
REMARK  194  A    between atoms: _468  and  _470
REMARK  195  A    between atoms: _470  and  _471
REMARK  196  A    between atoms: _470  and  _473
REMARK  197  A    between atoms: _473  and  _474
REMARK  198  A    between atoms: _477  and  _479
REMARK  199  A    between atoms: _479  and  _480
REMARK  200  A    between atoms: _479  and  _482
REMARK  201  A    between atoms: _482  and  _483
REMARK  202  A    between atoms: _483  and  _484
REMARK  203  A    between atoms: _484  and  _485
REMARK  204  A    between atoms: _494  and  _496
REMARK  205  A    between atoms: _496  and  _497
REMARK  206  A    between atoms: _496  and  _499
REMARK  207  A    between atoms: _499  and  _500
REMARK  208  A    between atoms: _506  and  _508
REMARK  209  A    between atoms: _508  and  _509
REMARK  210  A    between atoms: _508  and  _511
REMARK  211  A    between atoms: _511  and  _512
REMARK  212  A    between atoms: _515  and  _517
REMARK  213  A    between atoms: _517  and  _518
REMARK  214  A    between atoms: _517  and  _520
REMARK  215  A    between atoms: _520  and  _521
REMARK  216  A    between atoms: _524  and  _526
REMARK  217  A    between atoms: _526  and  _527
REMARK  218  A    between atoms: _526  and  _529
REMARK  219  A    between atoms: _529  and  _530
REMARK  220  A    between atoms: _536  and  _538
REMARK  221  A    between atoms: _538  and  _539
REMARK  222  A    between atoms: _538  and  _541
REMARK  223  A    between atoms: _541  and  _542
REMARK  224  A    between atoms: _542  and  _543
REMARK  225  A    between atoms: _545  and  _547
REMARK  226  A    between atoms: _547  and  _548
REMARK  227  A    between atoms: _547  and  _550
REMARK  228  A    between atoms: _550  and  _551
REMARK  229  A    between atoms: _551  and  _552
REMARK  230  A    between atoms: _556  and  _557
REMARK  231  A    between atoms: _562  and  _564
REMARK  232  A    between atoms: _564  and  _565
REMARK  233  A    between atoms: _564  and  _567
REMARK  234  A    between atoms: _567  and  _568
REMARK  235  A    between atoms: _568  and  _569
REMARK  236  A    between atoms: _569  and  _570
REMARK  237  A    between atoms: _570  and  _571
REMARK  238  A    between atoms: _575  and  _577
REMARK  239  A    between atoms: _577  and  _578
REMARK  240  A    between atoms: _577  and  _580
REMARK  241  A    between atoms: _580  and  _581
REMARK  242  A    between atoms: _587  and  _589
REMARK  243  A    between atoms: _589  and  _590
REMARK  244  A    between atoms: _589  and  _592
REMARK  245  A    between atoms: _592  and  _593
REMARK  246  A    between atoms: _596  and  _598
REMARK  247  A    between atoms: _598  and  _599
REMARK  248  A    between atoms: _598  and  _601
REMARK  249  A    between atoms: _601  and  _602
REMARK  250  A    between atoms: _605  and  _607
REMARK  251  A    between atoms: _607  and  _608
REMARK  252  A    between atoms: _607  and  _610
REMARK  253  A    between atoms: _613  and  _615
REMARK  254  A    between atoms: _615  and  _616
REMARK  255  A    between atoms: _615  and  _618
REMARK  256  A    between atoms: _618  and  _619
REMARK  257  A    between atoms: _624  and  _626
REMARK  258  A    between atoms: _626  and  _627
REMARK  259  A    between atoms: _626  and  _629
REMARK  260  A    between atoms: _629  and  _630
REMARK  261  A    between atoms: _633  and  _635
REMARK  262  A    between atoms: _635  and  _636
REMARK  263  A    between atoms: _635  and  _638
REMARK  264  A    between atoms: _638  and  _639
REMARK  265  A    between atoms: _642  and  _644
REMARK  266  A    between atoms: _644  and  _645
REMARK  267  A    between atoms: _644  and  _647
REMARK  268  A    between atoms: _647  and  _648
REMARK  269  A    between atoms: _651  and  _653
REMARK  270  A    between atoms: _653  and  _654
REMARK  271  A    between atoms: _653  and  _656
REMARK  272  A    between atoms: _656  and  _657
REMARK  273  A    between atoms: _662  and  _663
REMARK                            x       y       z     vdW  Elec       q    Type
REMARK                         _______ _______ _______ _____ _____    ______ ____
ROOT
ATOM      1  CG  TYR A   1       1.772  -3.931  16.103  0.00  0.00    -0.020 A 
ATOM      2  CD2 TYR A   1       3.026  -4.197  16.638  0.00  0.00    -0.001 A 
ATOM      3  CE2 TYR A   1       4.120  -4.375  15.828  0.00  0.00    +0.036 A 
ATOM      4  CZ  TYR A   1       3.991  -4.293  14.455  0.00  0.00    +0.134 A 
ATOM      5  CE1 TYR A   1       2.769  -4.018  13.889  0.00  0.00    +0.036 A 
ATOM      6  CD1 TYR A   1       1.662  -3.836  14.714  0.00  0.00    -0.001 A 
ENDROOT
BRANCH   4   7
ATOM      7  OH  TYR A   1       5.093  -4.535  13.650  0.00  0.00    -0.506 OA
ATOM      8  HH  TYR A   1       4.914  -5.321  13.075  0.00  0.00    +0.292 HD
ENDBRANCH   4   7
BRANCH   1   9
ATOM      9  CB  TYR A   1       0.543  -3.877  16.993  0.00  0.00    +0.051 C 
BRANCH   9  10
ATOM     10  CA  TYR A   1      -0.038  -2.498  17.347  0.00  0.00    +0.137 C 
BRANCH  10  11
ATOM     11  N   TYR A   1      -1.273  -2.706  18.095  0.00  0.00    -0.239 NA
ATOM     12  H   TYR A   1      -1.590  -3.681  18.269  0.00  0.00    +0.142 HD
ENDBRANCH  10  11
BRANCH  10  13
ATOM     13  C   TYR A   1      -0.353  -1.675  16.089  0.00  0.00    +0.224 C 
ATOM     14  O   TYR A   1       0.274  -0.650  15.842  0.00  0.00    -0.287 OA
ENDBRANCH  10  13
ENDBRANCH   9  10
ENDBRANCH   1   9
TORSDOF 5
REMARK  Name = ../refined-set-2016/2p4y/2p4y_pocket.pdb
REMARK  273 active torsions:
REMARK  status: ('A' for Active; 'I' for Inactive)
REMARK    1  A    between atoms: _1  and  _3
REMARK    2  A    between atoms: _3  and  _4
REMARK    3  A    between atoms: _3  and  _6
REMARK    4  A    between atoms: _6  and  _7
REMARK    5  A    between atoms: _12  and  _13
REMARK    6  A    between atoms: _15  and  _17
REMARK    7  A    between atoms: _17  and  _18
REMARK    8  A    between atoms: _17  and  _20
REMARK    9  A    between atoms: _20  and  _21
REMARK   10  A    between atoms: _23  and  _25
REMARK   11  A    between atoms: _25  and  _26
REMARK   12  A    between atoms: _25  and  _28
REMARK   13  A    between atoms: _28  and  _29
REMARK   14  A    between atoms: _36  and  _37
REMARK   15  A    between atoms: _42  and  _44
REMARK   16  A    between atoms: _44  and  _45
REMARK   17  A    between atoms: _44  and  _47
REMARK   18  A    between atoms: _47  and  _48
REMARK   19  A    between atoms: _51  and  _53
REMARK   20  A    between atoms: _53  and  _54
REMARK   21  A    between atoms: _53  and  _56
REMARK   22  A    between atoms: _56  and  _57
REMARK   23  A    between atoms: _60  and  _62
REMARK   24  A    between atoms: _62  and  _63
REMARK   25  A    between atoms: _62  and  _65
REMARK   26  A    between atoms: _65  and  _66
REMARK   27  A    between atoms: _69  and  _71
REMARK   28  A    between atoms: _71  and  _72
REMARK   29  A    between atoms: _71  and  _74
REMARK   30  A    between atoms: _74  and  _75
REMARK   31  A    between atoms: _75  and  _76
REMARK   32  A    between atoms: _76  and  _77
REMARK   33  A    between atoms: _86  and  _88
REMARK   34  A    between atoms: _88  and  _89
REMARK   35  A    between atoms: _88  and  _91
REMARK   36  A    between atoms: _91  and  _92
REMARK   37  A    between atoms: _95  and  _97
REMARK   38  A    between atoms: _97  and  _98
REMARK   39  A    between atoms: _97  and  _100
REMARK   40  A    between atoms: _100  and  _101
REMARK   41  A    between atoms: _107  and  _109
REMARK   42  A    between atoms: _109  and  _110
REMARK   43  A    between atoms: _109  and  _112
REMARK   44  A    between atoms: _112  and  _113
REMARK   45  A    between atoms: _113  and  _114
REMARK   46  A    between atoms: _119  and  _121
REMARK   47  A    between atoms: _121  and  _122
REMARK   48  A    between atoms: _124  and  _126
REMARK   49  A    between atoms: _126  and  _127
REMARK   50  A    between atoms: _126  and  _129
REMARK   51  A    between atoms: _131  and  _133
REMARK   52  A    between atoms: _133  and  _134
REMARK   53  A    between atoms: _133  and  _136
REMARK   54  A    between atoms: _136  and  _137
REMARK   55  A    between atoms: _137  and  _138
REMARK   56  A    between atoms: _143  and  _145
REMARK   57  A    between atoms: _145  and  _146
REMARK   58  A    between atoms: _145  and  _148
REMARK   59  A    between atoms: _148  and  _149
REMARK   60  A    between atoms: _155  and  _157
REMARK   61  A    between atoms: _157  and  _158
REMARK   62  A    between atoms: _157  and  _160
REMARK   63  A    between atoms: _160  and  _161
REMARK   64  A    between atoms: _161  and  _162
REMARK   65  A    between atoms: _162  and  _163
REMARK   66  A    between atoms: _172  and  _174
REMARK   67  A    between atoms: _174  and  _175
REMARK   68  A    between atoms: _174  and  _177
REMARK   69  A    between atoms: _177  and  _178
REMARK   70  A    between atoms: _180  and  _182
REMARK   71  A    between atoms: _182  and  _183
REMARK   72  A    between atoms: _182  and  _185
REMARK   73  A    between atoms: _188  and  _190
REMARK   74  A    between atoms: _190  and  _191
REMARK   75  A    between atoms: _190  and  _193
REMARK   76  A    between atoms: _193  and  _194
REMARK   77  A    between atoms: _194  and  _195
REMARK   78  A    between atoms: _198  and  _200
REMARK   79  A    between atoms: _200  and  _201
REMARK   80  A    between atoms: _204  and  _206
REMARK   81  A    between atoms: _206  and  _207
REMARK   82  A    between atoms: _206  and  _209
REMARK   83  A    between atoms: _212  and  _214
REMARK   84  A    between atoms: _214  and  _215
REMARK   85  A    between atoms: _214  and  _217
REMARK   86  A    between atoms: _217  and  _218
REMARK   87  A    between atoms: _218  and  _219
REMARK   88  A    between atoms: _224  and  _226
REMARK   89  A    between atoms: _226  and  _227
REMARK   90  A    between atoms: _226  and  _229
REMARK   91  A    between atoms: _229  and  _230
REMARK   92  A    between atoms: _230  and  _231
REMARK   93  A    between atoms: _234  and  _236
REMARK   94  A    between atoms: _236  and  _237
REMARK   95  A    between atoms: _236  and  _239
REMARK   96  A    between atoms: _239  and  _240
REMARK   97  A    between atoms: _243  and  _245
REMARK   98  A    between atoms: _245  and  _246
REMARK   99  A    between atoms: _245  and  _248
REMARK  100  A    between atoms: _248  and  _249
REMARK  101  A    between atoms: _252  and  _254
REMARK  102  A    between atoms: _254  and  _255
REMARK  103  A    between atoms: _254  and  _257
REMARK  104  A    between atoms: _257  and  _258
REMARK  105  A    between atoms: _263  and  _264
REMARK  106  A    between atoms: _266  and  _268
REMARK  107  A    between atoms: _268  and  _269
REMARK  108  A    between atoms: _268  and  _271
REMARK  109  A    between atoms: _274  and  _276
REMARK  110  A    between atoms: _276  and  _277
REMARK  111  A    between atoms: _276  and  _279
REMARK  112  A    between atoms: _279  and  _280
REMARK  113  A    between atoms: _285  and  _287
REMARK  114  A    between atoms: _287  and  _288
REMARK  115  A    between atoms: _287  and  _290
REMARK  116  A    between atoms: _290  and  _291
REMARK  117  A    between atoms: _294  and  _296
REMARK  118  A    between atoms: _296  and  _297
REMARK  119  A    between atoms: _296  and  _299
REMARK  120  A    between atoms: _299  and  _300
REMARK  121  A    between atoms: _303  and  _305
REMARK  122  A    between atoms: _305  and  _306
REMARK  123  A    between atoms: _305  and  _308
REMARK  124  A    between atoms: _308  and  _309
REMARK  125  A    between atoms: _314  and  _315
REMARK  126  A    between atoms: _317  and  _319
REMARK  127  A    between atoms: _319  and  _320
REMARK  128  A    between atoms: _319  and  _322
REMARK  129  A    between atoms: _322  and  _323
REMARK  130  A    between atoms: _326  and  _328
REMARK  131  A    between atoms: _328  and  _329
REMARK  132  A    between atoms: _328  and  _331
REMARK  133  A    between atoms: _331  and  _332
REMARK  134  A    between atoms: _332  and  _333
REMARK  135  A    between atoms: _335  and  _337
REMARK  136  A    between atoms: _337  and  _338
REMARK  137  A    between atoms: _337  and  _340
REMARK  138  A    between atoms: _340  and  _341
REMARK  139  A    between atoms: _344  and  _346
REMARK  140  A    between atoms: _346  and  _347
REMARK  141  A    between atoms: _350  and  _352
REMARK  142  A    between atoms: _352  and  _353
REMARK  143  A    between atoms: _352  and  _355
REMARK  144  A    between atoms: _355  and  _356
REMARK  145  A    between atoms: _358  and  _360
REMARK  146  A    between atoms: _360  and  _361
REMARK  147  A    between atoms: _360  and  _363
REMARK  148  A    between atoms: _363  and  _364
REMARK  149  A    between atoms: _367  and  _369
REMARK  150  A    between atoms: _369  and  _370
REMARK  151  A    between atoms: _369  and  _372
REMARK  152  A    between atoms: _372  and  _373
REMARK  153  A    between atoms: _373  and  _374
REMARK  154  A    between atoms: _376  and  _378
REMARK  155  A    between atoms: _378  and  _379
REMARK  156  A    between atoms: _381  and  _383
REMARK  157  A    between atoms: _383  and  _384
REMARK  158  A    between atoms: _383  and  _386
REMARK  159  A    between atoms: _389  and  _391
REMARK  160  A    between atoms: _391  and  _392
REMARK  161  A    between atoms: _391  and  _394
REMARK  162  A    between atoms: _394  and  _395
REMARK  163  A    between atoms: _398  and  _400
REMARK  164  A    between atoms: _400  and  _401
REMARK  165  A    between atoms: _400  and  _403
REMARK  166  A    between atoms: _403  and  _404
REMARK  167  A    between atoms: _407  and  _409
REMARK  168  A    between atoms: _409  and  _410
REMARK  169  A    between atoms: _409  and  _412
REMARK  170  A    between atoms: _412  and  _413
REMARK  171  A    between atoms: _415  and  _417
REMARK  172  A    between atoms: _417  and  _418
REMARK  173  A    between atoms: _417  and  _420
REMARK  174  A    between atoms: _420  and  _421
REMARK  175  A    between atoms: _421  and  _422
REMARK  176  A    between atoms: _425  and  _427
REMARK  177  A    between atoms: _427  and  _428
REMARK  178  A    between atoms: _430  and  _432
REMARK  179  A    between atoms: _432  and  _433
REMARK  180  A    between atoms: _432  and  _435
REMARK  181  A    between atoms: _435  and  _436
REMARK  182  A    between atoms: _436  and  _437
REMARK  183  A    between atoms: _442  and  _444
REMARK  184  A    between atoms: _444  and  _445
REMARK  185  A    between atoms: _447  and  _449
REMARK  186  A    between atoms: _449  and  _450
REMARK  187  A    between atoms: _449  and  _452
REMARK  188  A    between atoms: _452  and  _453
REMARK  189  A    between atoms: _459  and  _461
REMARK  190  A    between atoms: _461  and  _462
REMARK  191  A    between atoms: _461  and  _464
REMARK  192  A    between atoms: _464  and  _465
REMARK  193  A    between atoms: _465  and  _466
REMARK  194  A    between atoms: _468  and  _470
REMARK  195  A    between atoms: _470  and  _471
REMARK  196  A    between atoms: _470  and  _473
REMARK  197  A    between atoms: _473  and  _474
REMARK  198  A    between atoms: _477  and  _479
REMARK  199  A    between atoms: _479  and  _480
REMARK  200  A    between atoms: _479  and  _482
REMARK  201  A    between atoms: _482  and  _483
REMARK  202  A    between atoms: _483  and  _484
REMARK  203  A    between atoms: _484  and  _485
REMARK  204  A    between atoms: _494  and  _496
REMARK  205  A    between atoms: _496  and  _497
REMARK  206  A    between atoms: _496  and  _499
REMARK  207  A    between atoms: _499  and  _500
REMARK  208  A    between atoms: _506  and  _508
REMARK  209  A    between atoms: _508  and  _509
REMARK  210  A    between atoms: _508  and  _511
REMARK  211  A    between atoms: _511  and  _512
REMARK  212  A    between atoms: _515  and  _517
REMARK  213  A    between atoms: _517  and  _518
REMARK  214  A    between atoms: _517  and  _520
REMARK  215  A    between atoms: _520  and  _521
REMARK  216  A    between atoms: _524  and  _526
REMARK  217  A    between atoms: _526  and  _527
REMARK  218  A    between atoms: _526  and  _529
REMARK  219  A    between atoms: _529  and  _530
REMARK  220  A    between atoms: _536  and  _538
REMARK  221  A    between atoms: _538  and  _539
REMARK  222  A    between atoms: _538  and  _541
REMARK  223  A    between atoms: _541  and  _542
REMARK  224  A    between atoms: _542  and  _543
REMARK  225  A    between atoms: _545  and  _547
REMARK  226  A    between atoms: _547  and  _548
REMARK  227  A    between atoms: _547  and  _550
REMARK  228  A    between atoms: _550  and  _551
REMARK  229  A    between atoms: _551  and  _552
REMARK  230  A    between atoms: _556  and  _557
REMARK  231  A    between atoms: _562  and  _564
REMARK  232  A    between atoms: _564  and  _565
REMARK  233  A    between atoms: _564  and  _567
REMARK  234  A    between atoms: _567  and  _568
REMARK  235  A    between atoms: _568  and  _569
REMARK  236  A    between atoms: _569  and  _570
REMARK  237  A    between atoms: _570  and  _571
REMARK  238  A    between atoms: _575  and  _577
REMARK  239  A    between atoms: _577  and  _578
REMARK  240  A    between atoms: _577  and  _580
REMARK  241  A    between atoms: _580  and  _581
REMARK  242  A    between atoms: _587  and  _589
REMARK  243  A    between atoms: _589  and  _590
REMARK  244  A    between atoms: _589  and  _592
REMARK  245  A    between atoms: _592  and  _593
REMARK  246  A    between atoms: _596  and  _598
REMARK  247  A    between atoms: _598  and  _599
REMARK  248  A    between atoms: _598  and  _601
REMARK  249  A    between atoms: _601  and  _602
REMARK  250  A    between atoms: _605  and  _607
REMARK  251  A    between atoms: _607  and  _608
REMARK  252  A    between atoms: _607  and  _610
REMARK  253  A    between atoms: _613  and  _615
REMARK  254  A    between atoms: _615  and  _616
REMARK  255  A    between atoms: _615  and  _618
REMARK  256  A    between atoms: _618  and  _619
REMARK  257  A    between atoms: _624  and  _626
REMARK  258  A    between atoms: _626  and  _627
REMARK  259  A    between atoms: _626  and  _629
REMARK  260  A    between atoms: _629  and  _630
REMARK  261  A    between atoms: _633  and  _635
REMARK  262  A    between atoms: _635  and  _636
REMARK  263  A    between atoms: _635  and  _638
REMARK  264  A    between atoms: _638  and  _639
REMARK  265  A    between atoms: _642  and  _644
REMARK  266  A    between atoms: _644  and  _645
REMARK  267  A    between atoms: _644  and  _647
REMARK  268  A    between atoms: _647  and  _648
REMARK  269  A    between atoms: _651  and  _653
REMARK  270  A    between atoms: _653  and  _654
REMARK  271  A    between atoms: _653  and  _656
REMARK  272  A    between atoms: _656  and  _657
REMARK  273  A    between atoms: _662  and  _663
REMARK                            x       y       z     vdW  Elec       q    Type
REMARK                         _______ _______ _______ _____ _____    ______ ____
ROOT
ATOM      1  C   PHE A   2       2.239   2.410  13.307  0.00  0.00    +0.244 C 
ATOM      2  N   PRO A   3       2.352   3.657  12.834  0.00  0.00    -0.272 N 
ATOM      3  CD  PRO A   3       2.934   4.801  13.553  0.00  0.00    +0.094 C 
ATOM      4  CG  PRO A   3       3.197   5.796  12.452  0.00  0.00    +0.024 C 
ATOM      5  CB  PRO A   3       2.168   5.529  11.403  0.00  0.00    +0.031 C 
ATOM      6  CA  PRO A   3       1.908   4.021  11.479  0.00  0.00    +0.152 C 
ATOM      7  O   PHE A   2       1.796   1.497  12.615  0.00  0.00    -0.273 OA
ENDROOT
BRANCH   6   8
ATOM      8  C   PRO A   3       2.594   3.260  10.339  0.00  0.00    +0.241 C 
ATOM      9  N   LEU A   4       3.870   2.927  10.507  0.00  0.00    -0.297 N 
ATOM     10  H   LEU A   4       4.352   3.171  11.396  0.00  0.00    +0.150 HD
ATOM     11  O   PRO A   3       1.971   2.982   9.319  0.00  0.00    -0.273 OA
BRANCH   9  12
ATOM     12  CA  LEU A   4       4.603   2.223   9.460  0.00  0.00    +0.149 C 
BRANCH  12  13
ATOM     13  C   LEU A   4       4.912   0.770   9.849  0.00  0.00    +0.241 C 
ATOM     14  O   LEU A   4       5.886   0.490  10.546  0.00  0.00    -0.273 OA
ATOM     15  N   THR A   5       4.071  -0.144   9.371  0.00  0.00    -0.296 N 
ATOM     16  H   THR A   5       3.337   0.162   8.700  0.00  0.00    +0.150 HD
BRANCH  15  17
ATOM     17  CA  THR A   5       4.128  -1.556   9.742  0.00  0.00    +0.164 C 
BRANCH  17  18
ATOM     18  CB  THR A   5       2.771  -2.226   9.513  0.00  0.00    +0.136 C 
ATOM     19  CG2 THR A   5       1.693  -1.542  10.322  0.00  0.00    +0.034 C 
BRANCH  18  20
ATOM     20  OG1 THR A   5       2.435  -2.140   8.122  0.00  0.00    -0.382 OA
ATOM     21  HG1 THR A   5       1.558  -2.572   7.968  0.00  0.00    +0.210 HD
ENDBRANCH  18  20
ENDBRANCH  17  18
BRANCH  17  22
ATOM     22  C   THR A   5       5.148  -2.294   8.884  0.00  0.00    +0.229 C 
ATOM     23  O   THR A   5       5.597  -1.777   7.868  0.00  0.00    -0.286 OA
ENDBRANCH  17  22
ENDBRANCH  15  17
ENDBRANCH  12  13
BRANCH  12  24
ATOM     24  CB  LEU A   4       5.899   2.969   9.137  0.00  0.00    +0.029 C 
BRANCH  24  25
ATOM     25  CG  LEU A   4       6.812   2.358   8.071  0.00  0.00    +0.002 C 
ATOM     26  CD2 LEU A   4       8.073   3.205   7.946  0.00  0.00    +0.000 C 
ATOM     27  CD1 LEU A   4       6.097   2.293   6.738  0.00  0.00    +0.000 C 
ENDBRANCH  24  25
ENDBRANCH  12  24
ENDBRANCH   9  12
ENDBRANCH   6   8
BRANCH   1  28
ATOM     28  CA  PHE A   2       2.702   2.164  14.745  0.00  0.00    +0.153 C 
BRANCH  28  31
ATOM     29  C   SER A   1       1.337   2.884  16.633  0.00  0.00    +0.241 C 
ATOM     30  O   SER A   1       2.009   3.900  16.801  0.00  0.00    -0.274 OA
ATOM     31  N   PHE A   2       1.559   2.027  15.642  0.00  0.00    -0.297 N 
ATOM     32  H   PHE A   2       0.899   1.236  15.502  0.00  0.00    +0.150 HD
BRANCH  29  33
ATOM     33  CA  SER A   1       0.199   2.539  17.585  0.00  0.00    +0.174 C 
BRANCH  33  34
ATOM     34  N   SER A   1      -0.900   1.826  16.939  0.00  0.00    -0.236 NA
ATOM     35  H   SER A   1      -0.873   0.788  16.882  0.00  0.00    +0.142 HD
ENDBRANCH  33  34
BRANCH  33  36
ATOM     36  CB  SER A   1       0.749   1.715  18.758  0.00  0.00    +0.163 C 
BRANCH  36  37
ATOM     37  OG  SER A   1      -0.159   1.680  19.844  0.00  0.00    -0.380 OA
ATOM     38  H   SER A   1      -1.011   1.272  19.548  0.00  0.00    +0.211 HD
ENDBRANCH  36  37
ENDBRANCH  33  36
ENDBRANCH  29  33
ENDBRANCH  28  31
BRANCH  28  39
ATOM     39  CB  PHE A   2       3.571   0.899  14.802  0.00  0.00    +0.055 C 
BRANCH  39  40
ATOM     40  CG  PHE A   2       3.969   0.487  16.204  0.00  0.00    -0.020 A 
ATOM     41  CD2 PHE A   2       4.783   1.295  16.977  0.00  0.00    -0.004 A 
ATOM     42  CE2 PHE A   2       5.126   0.931  18.274  0.00  0.00    -0.000 A 
ATOM     43  CZ  PHE A   2       4.658  -0.248  18.807  0.00  0.00    -0.000 A 
ATOM     44  CE1 PHE A   2       3.846  -1.068  18.043  0.00  0.00    -0.000 A 
ATOM     45  CD1 PHE A   2       3.505  -0.698  16.747  0.00  0.00    -0.004 A 
ENDBRANCH  39  40
ENDBRANCH  28  39
ENDBRANCH   1  28
TORSDOF 17
REMARK  Name = ../refined-set-2016/2p4y/2p4y_pocket.pdb
REMARK  273 active torsions:
REMARK  status: ('A' for Active; 'I' for Inactive)
REMARK    1  A    between atoms: _1  and  _3
REMARK    2  A    between atoms: _3  and  _4
REMARK    3  A    between atoms: _3  and  _6
REMARK    4  A    between atoms: _6  and  _7
REMARK    5  A    between atoms: _12  and  _13
REMARK    6  A    between atoms: _15  and  _17
REMARK    7  A    between atoms: _17  and  _18
REMARK    8  A    between atoms: _17  and  _20
REMARK    9  A    between atoms: _20  and  _21
REMARK   10  A    between atoms: _23  and  _25
REMARK   11  A    between atoms: _25  and  _26
REMARK   12  A    between atoms: _25  and  _28
REMARK   13  A    between atoms: _28  and  _29
REMARK   14  A    between atoms: _36  and  _37
REMARK   15  A    between atoms: _42  and  _44
REMARK   16  A    between atoms: _44  and  _45
REMARK   17  A    between atoms: _44  and  _47
REMARK   18  A    between atoms: _47  and  _48
REMARK   19  A    between atoms: _51  and  _53
REMARK   20  A    between atoms: _53  and  _54
REMARK   21  A    between atoms: _53  and  _56
REMARK   22  A    between atoms: _56  and  _57
REMARK   23  A    between atoms: _60  and  _62
REMARK   24  A    between atoms: _62  and  _63
REMARK   25  A    between atoms: _62  and  _65
REMARK   26  A    between atoms: _65  and  _66
REMARK   27  A    between atoms: _69  and  _71
REMARK   28  A    between atoms: _71  and  _72
REMARK   29  A    between atoms: _71  and  _74
REMARK   30  A    between atoms: _74  and  _75
REMARK   31  A    between atoms: _75  and  _76
REMARK   32  A    between atoms: _76  and  _77
REMARK   33  A    between atoms: _86  and  _88
REMARK   34  A    between atoms: _88  and  _89
REMARK   35  A    between atoms: _88  and  _91
REMARK   36  A    between atoms: _91  and  _92
REMARK   37  A    between atoms: _95  and  _97
REMARK   38  A    between atoms: _97  and  _98
REMARK   39  A    between atoms: _97  and  _100
REMARK   40  A    between atoms: _100  and  _101
REMARK   41  A    between atoms: _107  and  _109
REMARK   42  A    between atoms: _109  and  _110
REMARK   43  A    between atoms: _109  and  _112
REMARK   44  A    between atoms: _112  and  _113
REMARK   45  A    between atoms: _113  and  _114
REMARK   46  A    between atoms: _119  and  _121
REMARK   47  A    between atoms: _121  and  _122
REMARK   48  A    between atoms: _124  and  _126
REMARK   49  A    between atoms: _126  and  _127
REMARK   50  A    between atoms: _126  and  _129
REMARK   51  A    between atoms: _131  and  _133
REMARK   52  A    between atoms: _133  and  _134
REMARK   53  A    between atoms: _133  and  _136
REMARK   54  A    between atoms: _136  and  _137
REMARK   55  A    between atoms: _137  and  _138
REMARK   56  A    between atoms: _143  and  _145
REMARK   57  A    between atoms: _145  and  _146
REMARK   58  A    between atoms: _145  and  _148
REMARK   59  A    between atoms: _148  and  _149
REMARK   60  A    between atoms: _155  and  _157
REMARK   61  A    between atoms: _157  and  _158
REMARK   62  A    between atoms: _157  and  _160
REMARK   63  A    between atoms: _160  and  _161
REMARK   64  A    between atoms: _161  and  _162
REMARK   65  A    between atoms: _162  and  _163
REMARK   66  A    between atoms: _172  and  _174
REMARK   67  A    between atoms: _174  and  _175
REMARK   68  A    between atoms: _174  and  _177
REMARK   69  A    between atoms: _177  and  _178
REMARK   70  A    between atoms: _180  and  _182
REMARK   71  A    between atoms: _182  and  _183
REMARK   72  A    between atoms: _182  and  _185
REMARK   73  A    between atoms: _188  and  _190
REMARK   74  A    between atoms: _190  and  _191
REMARK   75  A    between atoms: _190  and  _193
REMARK   76  A    between atoms: _193  and  _194
REMARK   77  A    between atoms: _194  and  _195
REMARK   78  A    between atoms: _198  and  _200
REMARK   79  A    between atoms: _200  and  _201
REMARK   80  A    between atoms: _204  and  _206
REMARK   81  A    between atoms: _206  and  _207
REMARK   82  A    between atoms: _206  and  _209
REMARK   83  A    between atoms: _212  and  _214
REMARK   84  A    between atoms: _214  and  _215
REMARK   85  A    between atoms: _214  and  _217
REMARK   86  A    between atoms: _217  and  _218
REMARK   87  A    between atoms: _218  and  _219
REMARK   88  A    between atoms: _224  and  _226
REMARK   89  A    between atoms: _226  and  _227
REMARK   90  A    between atoms: _226  and  _229
REMARK   91  A    between atoms: _229  and  _230
REMARK   92  A    between atoms: _230  and  _231
REMARK   93  A    between atoms: _234  and  _236
REMARK   94  A    between atoms: _236  and  _237
REMARK   95  A    between atoms: _236  and  _239
REMARK   96  A    between atoms: _239  and  _240
REMARK   97  A    between atoms: _243  and  _245
REMARK   98  A    between atoms: _245  and  _246
REMARK   99  A    between atoms: _245  and  _248
REMARK  100  A    between atoms: _248  and  _249
REMARK  101  A    between atoms: _252  and  _254
REMARK  102  A    between atoms: _254  and  _255
REMARK  103  A    between atoms: _254  and  _257
REMARK  104  A    between atoms: _257  and  _258
REMARK  105  A    between atoms: _263  and  _264
REMARK  106  A    between atoms: _266  and  _268
REMARK  107  A    between atoms: _268  and  _269
REMARK  108  A    between atoms: _268  and  _271
REMARK  109  A    between atoms: _274  and  _276
REMARK  110  A    between atoms: _276  and  _277
REMARK  111  A    between atoms: _276  and  _279
REMARK  112  A    between atoms: _279  and  _280
REMARK  113  A    between atoms: _285  and  _287
REMARK  114  A    between atoms: _287  and  _288
REMARK  115  A    between atoms: _287  and  _290
REMARK  116  A    between atoms: _290  and  _291
REMARK  117  A    between atoms: _294  and  _296
REMARK  118  A    between atoms: _296  and  _297
REMARK  119  A    between atoms: _296  and  _299
REMARK  120  A    between atoms: _299  and  _300
REMARK  121  A    between atoms: _303  and  _305
REMARK  122  A    between atoms: _305  and  _306
REMARK  123  A    between atoms: _305  and  _308
REMARK  124  A    between atoms: _308  and  _309
REMARK  125  A    between atoms: _314  and  _315
REMARK  126  A    between atoms: _317  and  _319
REMARK  127  A    between atoms: _319  and  _320
REMARK  128  A    between atoms: _319  and  _322
REMARK  129  A    between atoms: _322  and  _323
REMARK  130  A    between atoms: _326  and  _328
REMARK  131  A    between atoms: _328  and  _329
REMARK  132  A    between atoms: _328  and  _331
REMARK  133  A    between atoms: _331  and  _332
REMARK  134  A    between atoms: _332  and  _333
REMARK  135  A    between atoms: _335  and  _337
REMARK  136  A    between atoms: _337  and  _338
REMARK  137  A    between atoms: _337  and  _340
REMARK  138  A    between atoms: _340  and  _341
REMARK  139  A    between atoms: _344  and  _346
REMARK  140  A    between atoms: _346  and  _347
REMARK  141  A    between atoms: _350  and  _352
REMARK  142  A    between atoms: _352  and  _353
REMARK  143  A    between atoms: _352  and  _355
REMARK  144  A    between atoms: _355  and  _356
REMARK  145  A    between atoms: _358  and  _360
REMARK  146  A    between atoms: _360  and  _361
REMARK  147  A    between atoms: _360  and  _363
REMARK  148  A    between atoms: _363  and  _364
REMARK  149  A    between atoms: _367  and  _369
REMARK  150  A    between atoms: _369  and  _370
REMARK  151  A    between atoms: _369  and  _372
REMARK  152  A    between atoms: _372  and  _373
REMARK  153  A    between atoms: _373  and  _374
REMARK  154  A    between atoms: _376  and  _378
REMARK  155  A    between atoms: _378  and  _379
REMARK  156  A    between atoms: _381  and  _383
REMARK  157  A    between atoms: _383  and  _384
REMARK  158  A    between atoms: _383  and  _386
REMARK  159  A    between atoms: _389  and  _391
REMARK  160  A    between atoms: _391  and  _392
REMARK  161  A    between atoms: _391  and  _394
REMARK  162  A    between atoms: _394  and  _395
REMARK  163  A    between atoms: _398  and  _400
REMARK  164  A    between atoms: _400  and  _401
REMARK  165  A    between atoms: _400  and  _403
REMARK  166  A    between atoms: _403  and  _404
REMARK  167  A    between atoms: _407  and  _409
REMARK  168  A    between atoms: _409  and  _410
REMARK  169  A    between atoms: _409  and  _412
REMARK  170  A    between atoms: _412  and  _413
REMARK  171  A    between atoms: _415  and  _417
REMARK  172  A    between atoms: _417  and  _418
REMARK  173  A    between atoms: _417  and  _420
REMARK  174  A    between atoms: _420  and  _421
REMARK  175  A    between atoms: _421  and  _422
REMARK  176  A    between atoms: _425  and  _427
REMARK  177  A    between atoms: _427  and  _428
REMARK  178  A    between atoms: _430  and  _432
REMARK  179  A    between atoms: _432  and  _433
REMARK  180  A    between atoms: _432  and  _435
REMARK  181  A    between atoms: _435  and  _436
REMARK  182  A    between atoms: _436  and  _437
REMARK  183  A    between atoms: _442  and  _444
REMARK  184  A    between atoms: _444  and  _445
REMARK  185  A    between atoms: _447  and  _449
REMARK  186  A    between atoms: _449  and  _450
REMARK  187  A    between atoms: _449  and  _452
REMARK  188  A    between atoms: _452  and  _453
REMARK  189  A    between atoms: _459  and  _461
REMARK  190  A    between atoms: _461  and  _462
REMARK  191  A    between atoms: _461  and  _464
REMARK  192  A    between atoms: _464  and  _465
REMARK  193  A    between atoms: _465  and  _466
REMARK  194  A    between atoms: _468  and  _470
REMARK  195  A    between atoms: _470  and  _471
REMARK  196  A    between atoms: _470  and  _473
REMARK  197  A    between atoms: _473  and  _474
REMARK  198  A    between atoms: _477  and  _479
REMARK  199  A    between atoms: _479  and  _480
REMARK  200  A    between atoms: _479  and  _482
REMARK  201  A    between atoms: _482  and  _483
REMARK  202  A    between atoms: _483  and  _484
REMARK  203  A    between atoms: _484  and  _485
REMARK  204  A    between atoms: _494  and  _496
REMARK  205  A    between atoms: _496  and  _497
REMARK  206  A    between atoms: _496  and  _499
REMARK  207  A    between atoms: _499  and  _500
REMARK  208  A    between atoms: _506  and  _508
REMARK  209  A    between atoms: _508  and  _509
REMARK  210  A    between atoms: _508  and  _511
REMARK  211  A    between atoms: _511  and  _512
REMARK  212  A    between atoms: _515  and  _517
REMARK  213  A    between atoms: _517  and  _518
REMARK  214  A    between atoms: _517  and  _520
REMARK  215  A    between atoms: _520  and  _521
REMARK  216  A    between atoms: _524  and  _526
REMARK  217  A    between atoms: _526  and  _527
REMARK  218  A    between atoms: _526  and  _529
REMARK  219  A    between atoms: _529  and  _530
REMARK  220  A    between atoms: _536  and  _538
REMARK  221  A    between atoms: _538  and  _539
REMARK  222  A    between atoms: _538  and  _541
REMARK  223  A    between atoms: _541  and  _542
REMARK  224  A    between atoms: _542  and  _543
REMARK  225  A    between atoms: _545  and  _547
REMARK  226  A    between atoms: _547  and  _548
REMARK  227  A    between atoms: _547  and  _550
REMARK  228  A    between atoms: _550  and  _551
REMARK  229  A    between atoms: _551  and  _552
REMARK  230  A    between atoms: _556  and  _557
REMARK  231  A    between atoms: _562  and  _564
REMARK  232  A    between atoms: _564  and  _565
REMARK  233  A    between atoms: _564  and  _567
REMARK  234  A    between atoms: _567  and  _568
REMARK  235  A    between atoms: _568  and  _569
REMARK  236  A    between atoms: _569  and  _570
REMARK  237  A    between atoms: _570  and  _571
REMARK  238  A    between atoms: _575  and  _577
REMARK  239  A    between atoms: _577  and  _578
REMARK  240  A    between atoms: _577  and  _580
REMARK  241  A    between atoms: _580  and  _581
REMARK  242  A    between atoms: _587  and  _589
REMARK  243  A    between atoms: _589  and  _590
REMARK  244  A    between atoms: _589  and  _592
REMARK  245  A    between atoms: _592  and  _593
REMARK  246  A    between atoms: _596  and  _598
REMARK  247  A    between atoms: _598  and  _599
REMARK  248  A    between atoms: _598  and  _601
REMARK  249  A    between atoms: _601  and  _602
REMARK  250  A    between atoms: _605  and  _607
REMARK  251  A    between atoms: _607  and  _608
REMARK  252  A    between atoms: _607  and  _610
REMARK  253  A    between atoms: _613  and  _615
REMARK  254  A    between atoms: _615  and  _616
REMARK  255  A    between atoms: _615  and  _618
REMARK  256  A    between atoms: _618  and  _619
REMARK  257  A    between atoms: _624  and  _626
REMARK  258  A    between atoms: _626  and  _627
REMARK  259  A    between atoms: _626  and  _629
REMARK  260  A    between atoms: _629  and  _630
REMARK  261  A    between atoms: _633  and  _635
REMARK  262  A    between atoms: _635  and  _636
REMARK  263  A    between atoms: _635  and  _638
REMARK  264  A    between atoms: _638  and  _639
REMARK  265  A    between atoms: _642  and  _644
REMARK  266  A    between atoms: _644  and  _645
REMARK  267  A    between atoms: _644  and  _647
REMARK  268  A    between atoms: _647  and  _648
REMARK  269  A    between atoms: _651  and  _653
REMARK  270  A    between atoms: _653  and  _654
REMARK  271  A    between atoms: _653  and  _656
REMARK  272  A    between atoms: _656  and  _657
REMARK  273  A    between atoms: _662  and  _663
REMARK                            x       y       z     vdW  Elec       q    Type
REMARK                         _______ _______ _______ _____ _____    ______ ____
ROOT
ATOM      1  CA  ILE A   1      20.321   8.177  -0.895  0.00  0.00    +0.133 C 
ENDROOT
BRANCH   1   2
ATOM      2  N   ILE A   1      19.144   7.380  -1.240  0.00  0.00    -0.239 NA
ATOM      3  H   ILE A   1      18.731   6.759  -0.515  0.00  0.00    +0.142 HD
ENDBRANCH   1   2
BRANCH   1   4
ATOM      4  CB  ILE A   1      20.073   9.007   0.385  0.00  0.00    +0.023 C 
ATOM      5  CG2 ILE A   1      21.328   9.801   0.754  0.00  0.00    +0.002 C 
BRANCH   4   6
ATOM      6  CG1 ILE A   1      18.886   9.944   0.172  0.00  0.00    +0.002 C 
ATOM      7  CD1 ILE A   1      18.395  10.584   1.446  0.00  0.00    +0.000 C 
ENDBRANCH   4   6
ENDBRANCH   1   4
BRANCH   1   8
ATOM      8  C   ILE A   1      21.490   7.240  -0.646  0.00  0.00    +0.224 C 
ATOM      9  O   ILE A   1      21.455   6.443   0.279  0.00  0.00    -0.287 OA
ENDBRANCH   1   8
TORSDOF 4
REMARK  Name = ../refined-set-2016/2p4y/2p4y_pocket.pdb
REMARK  273 active torsions:
REMARK  status: ('A' for Active; 'I' for Inactive)
REMARK    1  A    between atoms: _1  and  _3
REMARK    2  A    between atoms: _3  and  _4
REMARK    3  A    between atoms: _3  and  _6
REMARK    4  A    between atoms: _6  and  _7
REMARK    5  A    between atoms: _12  and  _13
REMARK    6  A    between atoms: _15  and  _17
REMARK    7  A    between atoms: _17  and  _18
REMARK    8  A    between atoms: _17  and  _20
REMARK    9  A    between atoms: _20  and  _21
REMARK   10  A    between atoms: _23  and  _25
REMARK   11  A    between atoms: _25  and  _26
REMARK   12  A    between atoms: _25  and  _28
REMARK   13  A    between atoms: _28  and  _29
REMARK   14  A    between atoms: _36  and  _37
REMARK   15  A    between atoms: _42  and  _44
REMARK   16  A    between atoms: _44  and  _45
REMARK   17  A    between atoms: _44  and  _47
REMARK   18  A    between atoms: _47  and  _48
REMARK   19  A    between atoms: _51  and  _53
REMARK   20  A    between atoms: _53  and  _54
REMARK   21  A    between atoms: _53  and  _56
REMARK   22  A    between atoms: _56  and  _57
REMARK   23  A    between atoms: _60  and  _62
REMARK   24  A    between atoms: _62  and  _63
REMARK   25  A    between atoms: _62  and  _65
REMARK   26  A    between atoms: _65  and  _66
REMARK   27  A    between atoms: _69  and  _71
REMARK   28  A    between atoms: _71  and  _72
REMARK   29  A    between atoms: _71  and  _74
REMARK   30  A    between atoms: _74  and  _75
REMARK   31  A    between atoms: _75  and  _76
REMARK   32  A    between atoms: _76  and  _77
REMARK   33  A    between atoms: _86  and  _88
REMARK   34  A    between atoms: _88  and  _89
REMARK   35  A    between atoms: _88  and  _91
REMARK   36  A    between atoms: _91  and  _92
REMARK   37  A    between atoms: _95  and  _97
REMARK   38  A    between atoms: _97  and  _98
REMARK   39  A    between atoms: _97  and  _100
REMARK   40  A    between atoms: _100  and  _101
REMARK   41  A    between atoms: _107  and  _109
REMARK   42  A    between atoms: _109  and  _110
REMARK   43  A    between atoms: _109  and  _112
REMARK   44  A    between atoms: _112  and  _113
REMARK   45  A    between atoms: _113  and  _114
REMARK   46  A    between atoms: _119  and  _121
REMARK   47  A    between atoms: _121  and  _122
REMARK   48  A    between atoms: _124  and  _126
REMARK   49  A    between atoms: _126  and  _127
REMARK   50  A    between atoms: _126  and  _129
REMARK   51  A    between atoms: _131  and  _133
REMARK   52  A    between atoms: _133  and  _134
REMARK   53  A    between atoms: _133  and  _136
REMARK   54  A    between atoms: _136  and  _137
REMARK   55  A    between atoms: _137  and  _138
REMARK   56  A    between atoms: _143  and  _145
REMARK   57  A    between atoms: _145  and  _146
REMARK   58  A    between atoms: _145  and  _148
REMARK   59  A    between atoms: _148  and  _149
REMARK   60  A    between atoms: _155  and  _157
REMARK   61  A    between atoms: _157  and  _158
REMARK   62  A    between atoms: _157  and  _160
REMARK   63  A    between atoms: _160  and  _161
REMARK   64  A    between atoms: _161  and  _162
REMARK   65  A    between atoms: _162  and  _163
REMARK   66  A    between atoms: _172  and  _174
REMARK   67  A    between atoms: _174  and  _175
REMARK   68  A    between atoms: _174  and  _177
REMARK   69  A    between atoms: _177  and  _178
REMARK   70  A    between atoms: _180  and  _182
REMARK   71  A    between atoms: _182  and  _183
REMARK   72  A    between atoms: _182  and  _185
REMARK   73  A    between atoms: _188  and  _190
REMARK   74  A    between atoms: _190  and  _191
REMARK   75  A    between atoms: _190  and  _193
REMARK   76  A    between atoms: _193  and  _194
REMARK   77  A    between atoms: _194  and  _195
REMARK   78  A    between atoms: _198  and  _200
REMARK   79  A    between atoms: _200  and  _201
REMARK   80  A    between atoms: _204  and  _206
REMARK   81  A    between atoms: _206  and  _207
REMARK   82  A    between atoms: _206  and  _209
REMARK   83  A    between atoms: _212  and  _214
REMARK   84  A    between atoms: _214  and  _215
REMARK   85  A    between atoms: _214  and  _217
REMARK   86  A    between atoms: _217  and  _218
REMARK   87  A    between atoms: _218  and  _219
REMARK   88  A    between atoms: _224  and  _226
REMARK   89  A    between atoms: _226  and  _227
REMARK   90  A    between atoms: _226  and  _229
REMARK   91  A    between atoms: _229  and  _230
REMARK   92  A    between atoms: _230  and  _231
REMARK   93  A    between atoms: _234  and  _236
REMARK   94  A    between atoms: _236  and  _237
REMARK   95  A    between atoms: _236  and  _239
REMARK   96  A    between atoms: _239  and  _240
REMARK   97  A    between atoms: _243  and  _245
REMARK   98  A    between atoms: _245  and  _246
REMARK   99  A    between atoms: _245  and  _248
REMARK  100  A    between atoms: _248  and  _249
REMARK  101  A    between atoms: _252  and  _254
REMARK  102  A    between atoms: _254  and  _255
REMARK  103  A    between atoms: _254  and  _257
REMARK  104  A    between atoms: _257  and  _258
REMARK  105  A    between atoms: _263  and  _264
REMARK  106  A    between atoms: _266  and  _268
REMARK  107  A    between atoms: _268  and  _269
REMARK  108  A    between atoms: _268  and  _271
REMARK  109  A    between atoms: _274  and  _276
REMARK  110  A    between atoms: _276  and  _277
REMARK  111  A    between atoms: _276  and  _279
REMARK  112  A    between atoms: _279  and  _280
REMARK  113  A    between atoms: _285  and  _287
REMARK  114  A    between atoms: _287  and  _288
REMARK  115  A    between atoms: _287  and  _290
REMARK  116  A    between atoms: _290  and  _291
REMARK  117  A    between atoms: _294  and  _296
REMARK  118  A    between atoms: _296  and  _297
REMARK  119  A    between atoms: _296  and  _299
REMARK  120  A    between atoms: _299  and  _300
REMARK  121  A    between atoms: _303  and  _305
REMARK  122  A    between atoms: _305  and  _306
REMARK  123  A    between atoms: _305  and  _308
REMARK  124  A    between atoms: _308  and  _309
REMARK  125  A    between atoms: _314  and  _315
REMARK  126  A    between atoms: _317  and  _319
REMARK  127  A    between atoms: _319  and  _320
REMARK  128  A    between atoms: _319  and  _322
REMARK  129  A    between atoms: _322  and  _323
REMARK  130  A    between atoms: _326  and  _328
REMARK  131  A    between atoms: _328  and  _329
REMARK  132  A    between atoms: _328  and  _331
REMARK  133  A    between atoms: _331  and  _332
REMARK  134  A    between atoms: _332  and  _333
REMARK  135  A    between atoms: _335  and  _337
REMARK  136  A    between atoms: _337  and  _338
REMARK  137  A    between atoms: _337  and  _340
REMARK  138  A    between atoms: _340  and  _341
REMARK  139  A    between atoms: _344  and  _346
REMARK  140  A    between atoms: _346  and  _347
REMARK  141  A    between atoms: _350  and  _352
REMARK  142  A    between atoms: _352  and  _353
REMARK  143  A    between atoms: _352  and  _355
REMARK  144  A    between atoms: _355  and  _356
REMARK  145  A    between atoms: _358  and  _360
REMARK  146  A    between atoms: _360  and  _361
REMARK  147  A    between atoms: _360  and  _363
REMARK  148  A    between atoms: _363  and  _364
REMARK  149  A    between atoms: _367  and  _369
REMARK  150  A    between atoms: _369  and  _370
REMARK  151  A    between atoms: _369  and  _372
REMARK  152  A    between atoms: _372  and  _373
REMARK  153  A    between atoms: _373  and  _374
REMARK  154  A    between atoms: _376  and  _378
REMARK  155  A    between atoms: _378  and  _379
REMARK  156  A    between atoms: _381  and  _383
REMARK  157  A    between atoms: _383  and  _384
REMARK  158  A    between atoms: _383  and  _386
REMARK  159  A    between atoms: _389  and  _391
REMARK  160  A    between atoms: _391  and  _392
REMARK  161  A    between atoms: _391  and  _394
REMARK  162  A    between atoms: _394  and  _395
REMARK  163  A    between atoms: _398  and  _400
REMARK  164  A    between atoms: _400  and  _401
REMARK  165  A    between atoms: _400  and  _403
REMARK  166  A    between atoms: _403  and  _404
REMARK  167  A    between atoms: _407  and  _409
REMARK  168  A    between atoms: _409  and  _410
REMARK  169  A    between atoms: _409  and  _412
REMARK  170  A    between atoms: _412  and  _413
REMARK  171  A    between atoms: _415  and  _417
REMARK  172  A    between atoms: _417  and  _418
REMARK  173  A    between atoms: _417  and  _420
REMARK  174  A    between atoms: _420  and  _421
REMARK  175  A    between atoms: _421  and  _422
REMARK  176  A    between atoms: _425  and  _427
REMARK  177  A    between atoms: _427  and  _428
REMARK  178  A    between atoms: _430  and  _432
REMARK  179  A    between atoms: _432  and  _433
REMARK  180  A    between atoms: _432  and  _435
REMARK  181  A    between atoms: _435  and  _436
REMARK  182  A    between atoms: _436  and  _437
REMARK  183  A    between atoms: _442  and  _444
REMARK  184  A    between atoms: _444  and  _445
REMARK  185  A    between atoms: _447  and  _449
REMARK  186  A    between atoms: _449  and  _450
REMARK  187  A    between atoms: _449  and  _452
REMARK  188  A    between atoms: _452  and  _453
REMARK  189  A    between atoms: _459  and  _461
REMARK  190  A    between atoms: _461  and  _462
REMARK  191  A    between atoms: _461  and  _464
REMARK  192  A    between atoms: _464  and  _465
REMARK  193  A    between atoms: _465  and  _466
REMARK  194  A    between atoms: _468  and  _470
REMARK  195  A    between atoms: _470  and  _471
REMARK  196  A    between atoms: _470  and  _473
REMARK  197  A    between atoms: _473  and  _474
REMARK  198  A    between atoms: _477  and  _479
REMARK  199  A    between atoms: _479  and  _480
REMARK  200  A    between atoms: _479  and  _482
REMARK  201  A    between atoms: _482  and  _483
REMARK  202  A    between atoms: _483  and  _484
REMARK  203  A    between atoms: _484  and  _485
REMARK  204  A    between atoms: _494  and  _496
REMARK  205  A    between atoms: _496  and  _497
REMARK  206  A    between atoms: _496  and  _499
REMARK  207  A    between atoms: _499  and  _500
REMARK  208  A    between atoms: _506  and  _508
REMARK  209  A    between atoms: _508  and  _509
REMARK  210  A    between atoms: _508  and  _511
REMARK  211  A    between atoms: _511  and  _512
REMARK  212  A    between atoms: _515  and  _517
REMARK  213  A    between atoms: _517  and  _518
REMARK  214  A    between atoms: _517  and  _520
REMARK  215  A    between atoms: _520  and  _521
REMARK  216  A    between atoms: _524  and  _526
REMARK  217  A    between atoms: _526  and  _527
REMARK  218  A    between atoms: _526  and  _529
REMARK  219  A    between atoms: _529  and  _530
REMARK  220  A    between atoms: _536  and  _538
REMARK  221  A    between atoms: _538  and  _539
REMARK  222  A    between atoms: _538  and  _541
REMARK  223  A    between atoms: _541  and  _542
REMARK  224  A    between atoms: _542  and  _543
REMARK  225  A    between atoms: _545  and  _547
REMARK  226  A    between atoms: _547  and  _548
REMARK  227  A    between atoms: _547  and  _550
REMARK  228  A    between atoms: _550  and  _551
REMARK  229  A    between atoms: _551  and  _552
REMARK  230  A    between atoms: _556  and  _557
REMARK  231  A    between atoms: _562  and  _564
REMARK  232  A    between atoms: _564  and  _565
REMARK  233  A    between atoms: _564  and  _567
REMARK  234  A    between atoms: _567  and  _568
REMARK  235  A    between atoms: _568  and  _569
REMARK  236  A    between atoms: _569  and  _570
REMARK  237  A    between atoms: _570  and  _571
REMARK  238  A    between atoms: _575  and  _577
REMARK  239  A    between atoms: _577  and  _578
REMARK  240  A    between atoms: _577  and  _580
REMARK  241  A    between atoms: _580  and  _581
REMARK  242  A    between atoms: _587  and  _589
REMARK  243  A    between atoms: _589  and  _590
REMARK  244  A    between atoms: _589  and  _592
REMARK  245  A    between atoms: _592  and  _593
REMARK  246  A    between atoms: _596  and  _598
REMARK  247  A    between atoms: _598  and  _599
REMARK  248  A    between atoms: _598  and  _601
REMARK  249  A    between atoms: _601  and  _602
REMARK  250  A    between atoms: _605  and  _607
REMARK  251  A    between atoms: _607  and  _608
REMARK  252  A    between atoms: _607  and  _610
REMARK  253  A    between atoms: _613  and  _615
REMARK  254  A    between atoms: _615  and  _616
REMARK  255  A    between atoms: _615  and  _618
REMARK  256  A    between atoms: _618  and  _619
REMARK  257  A    between atoms: _624  and  _626
REMARK  258  A    between atoms: _626  and  _627
REMARK  259  A    between atoms: _626  and  _629
REMARK  260  A    between atoms: _629  and  _630
REMARK  261  A    between atoms: _633  and  _635
REMARK  262  A    between atoms: _635  and  _636
REMARK  263  A    between atoms: _635  and  _638
REMARK  264  A    between atoms: _638  and  _639
REMARK  265  A    between atoms: _642  and  _644
REMARK  266  A    between atoms: _644  and  _645
REMARK  267  A    between atoms: _644  and  _647
REMARK  268  A    between atoms: _647  and  _648
REMARK  269  A    between atoms: _651  and  _653
REMARK  270  A    between atoms: _653  and  _654
REMARK  271  A    between atoms: _653  and  _656
REMARK  272  A    between atoms: _656  and  _657
REMARK  273  A    between atoms: _662  and  _663
REMARK                            x       y       z     vdW  Elec       q    Type
REMARK                         _______ _______ _______ _____ _____    ______ ____
ROOT
ATOM      1  CA  ARG A   9      12.939   9.240  15.340  0.00  0.00    +0.149 C 
ENDROOT
BRANCH   1   2
ATOM      2  C   ARG A   9      12.844   8.343  16.571  0.00  0.00    +0.241 C 
ATOM      3  N   SER A  10      13.969   8.093  17.238  0.00  0.00    -0.295 N 
ATOM      4  H   SER A  10      14.871   8.469  16.883  0.00  0.00    +0.150 HD
ATOM      5  O   ARG A   9      11.758   7.893  16.919  0.00  0.00    -0.273 OA
BRANCH   3   6
ATOM      6  CA  SER A  10      13.950   7.291  18.471  0.00  0.00    +0.178 C 
BRANCH   6   7
ATOM      7  C   SER A  10      12.965   7.820  19.503  0.00  0.00    +0.243 C 
ATOM      8  O   SER A  10      12.140   7.076  20.029  0.00  0.00    -0.273 OA
ATOM      9  N   VAL A  11      13.065   9.109  19.799  0.00  0.00    -0.297 N 
ATOM     10  H   VAL A  11      13.784   9.689  19.322  0.00  0.00    +0.150 HD
BRANCH   9  11
ATOM     11  CA  VAL A  11      12.188   9.723  20.777  0.00  0.00    +0.149 C 
BRANCH  11  12
ATOM     12  C   VAL A  11      10.740   9.512  20.363  0.00  0.00    +0.241 C 
ATOM     13  O   VAL A  11       9.902   9.146  21.183  0.00  0.00    -0.273 OA
ATOM     14  N   GLU A  12      10.449   9.728  19.084  0.00  0.00    -0.297 N 
ATOM     15  H   GLU A  12      11.187  10.088  18.445  0.00  0.00    +0.150 HD
BRANCH  14  16
ATOM     16  CA  GLU A  12       9.108   9.468  18.560  0.00  0.00    +0.149 C 
BRANCH  16  17
ATOM     17  C   GLU A  12       8.691   8.007  18.706  0.00  0.00    +0.241 C 
ATOM     18  O   GLU A  12       7.546   7.719  19.039  0.00  0.00    -0.273 OA
ATOM     19  N   ALA A  13       9.622   7.093  18.454  0.00  0.00    -0.297 N 
ATOM     20  H   ALA A  13      10.561   7.398  18.129  0.00  0.00    +0.150 HD
BRANCH  19  21
ATOM     21  CA  ALA A  13       9.352   5.667  18.625  0.00  0.00    +0.149 C 
ATOM     22  CB  ALA A  13      10.527   4.831  18.112  0.00  0.00    +0.031 C 
BRANCH  21  23
ATOM     23  C   ALA A  13       9.089   5.352  20.089  0.00  0.00    +0.241 C 
ATOM     24  N   VAL A  14       9.847   5.979  20.991  0.00  0.00    -0.297 N 
ATOM     25  H   VAL A  14      10.608   6.611  20.670  0.00  0.00    +0.150 HD
ATOM     26  O   ALA A  13       8.214   4.552  20.398  0.00  0.00    -0.273 OA
BRANCH  24  27
ATOM     27  CA  VAL A  14       9.623   5.790  22.426  0.00  0.00    +0.149 C 
BRANCH  27  28
ATOM     28  C   VAL A  14       8.198   6.185  22.774  0.00  0.00    +0.241 C 
ATOM     29  O   VAL A  14       7.555   5.559  23.614  0.00  0.00    -0.273 OA
ATOM     30  N   GLN A  15       7.699   7.231  22.128  0.00  0.00    -0.297 N 
ATOM     31  H   GLN A  15       8.269   7.710  21.402  0.00  0.00    +0.150 HD
BRANCH  30  32
ATOM     32  CA  GLN A  15       6.359   7.713  22.429  0.00  0.00    +0.149 C 
BRANCH  32  33
ATOM     33  C   GLN A  15       5.340   6.704  21.914  0.00  0.00    +0.241 C 
ATOM     34  O   GLN A  15       4.351   6.397  22.581  0.00  0.00    -0.273 OA
ATOM     35  N   GLU A  16       5.602   6.178  20.724  0.00  0.00    -0.297 N 
ATOM     36  H   GLU A  16       6.462   6.474  20.220  0.00  0.00    +0.150 HD
BRANCH  35  37
ATOM     37  CA  GLU A  16       4.722   5.199  20.103  0.00  0.00    +0.149 C 
BRANCH  37  38
ATOM     38  C   GLU A  16       4.721   3.883  20.871  0.00  0.00    +0.241 C 
ATOM     39  N   ILE A  17       5.893   3.445  21.306  0.00  0.00    -0.297 N 
ATOM     40  H   ILE A  17       6.759   3.986  21.107  0.00  0.00    +0.150 HD
ATOM     41  O   GLU A  16       3.670   3.275  21.084  0.00  0.00    -0.273 OA
BRANCH  39  42
ATOM     42  CA  ILE A  17       5.966   2.205  22.063  0.00  0.00    +0.149 C 
BRANCH  42  43
ATOM     43  C   ILE A  17       5.281   2.372  23.419  0.00  0.00    +0.241 C 
ATOM     44  N   THR A  18       5.375   3.561  23.999  0.00  0.00    -0.296 N 
ATOM     45  H   THR A  18       5.924   4.319  23.544  0.00  0.00    +0.150 HD
ATOM     46  O   ILE A  17       4.650   1.447  23.925  0.00  0.00    -0.273 OA
BRANCH  44  47
ATOM     47  CA  THR A  18       4.710   3.808  25.274  0.00  0.00    +0.164 C 
BRANCH  47  48
ATOM     48  C   THR A  18       3.189   3.736  25.141  0.00  0.00    +0.229 C 
ATOM     49  O   THR A  18       2.510   3.224  26.028  0.00  0.00    -0.286 OA
ENDBRANCH  47  48
BRANCH  47  50
ATOM     50  CB  THR A  18       5.105   5.186  25.860  0.00  0.00    +0.136 C 
ATOM     51  CG2 THR A  18       4.352   5.457  27.148  0.00  0.00    +0.034 C 
BRANCH  50  52
ATOM     52  OG1 THR A  18       6.507   5.199  26.143  0.00  0.00    -0.382 OA
ATOM     53  HG1 THR A  18       7.013   5.038  25.307  0.00  0.00    +0.210 HD
ENDBRANCH  50  52
ENDBRANCH  47  50
ENDBRANCH  44  47
ENDBRANCH  42  43
BRANCH  42  54
ATOM     54  CB  ILE A  17       7.428   1.760  22.250  0.00  0.00    +0.027 C 
ATOM     55  CG2 ILE A  17       7.486   0.557  23.157  0.00  0.00    +0.002 C 
BRANCH  54  56
ATOM     56  CG1 ILE A  17       8.037   1.435  20.886  0.00  0.00    +0.002 C 
ATOM     57  CD1 ILE A  17       9.552   1.399  20.849  0.00  0.00    +0.000 C 
ENDBRANCH  54  56
ENDBRANCH  42  54
ENDBRANCH  39  42
ENDBRANCH  37  38
BRANCH  37  58
ATOM     58  CB  GLU A  16       5.149   4.967  18.651  0.00  0.00    +0.041 C 
BRANCH  58  59
ATOM     59  CG  GLU A  16       4.910   6.180  17.768  0.00  0.00    +0.116 C 
BRANCH  59  60
ATOM     60  CD  GLU A  16       5.307   5.952  16.319  0.00  0.00    +0.365 C 
ATOM     61  OE2 GLU A  16       5.976   4.935  16.037  0.00  0.00    -0.246 OA
ATOM     62  OE1 GLU A  16       4.953   6.797  15.464  0.00  0.00    -0.246 OA
ENDBRANCH  59  60
ENDBRANCH  58  59
ENDBRANCH  37  58
ENDBRANCH  35  37
ENDBRANCH  32  33
BRANCH  32  63
ATOM     63  CB  GLN A  15       6.146   9.081  21.774  0.00  0.00    +0.039 C 
BRANCH  63  64
ATOM     64  CG  GLN A  15       7.266  10.082  22.090  0.00  0.00    +0.087 C 
BRANCH  64  65
ATOM     65  CD  GLN A  15       7.135  11.393  21.329  0.00  0.00    +0.219 C 
ATOM     66  OE1 GLN A  15       7.393  12.463  21.875  0.00  0.00    -0.275 OA
ATOM     67  NE2 GLN A  15       6.737  11.315  20.062  0.00  0.00    -0.329 N 
ATOM     68 HE21 GLN A  15       6.529  10.388  19.638  0.00  0.00    +0.145 HD
ATOM     69 HE22 GLN A  15       6.634  12.181  19.495  0.00  0.00    +0.145 HD
ENDBRANCH  64  65
ENDBRANCH  63  64
ENDBRANCH  32  63
ENDBRANCH  30  32
ENDBRANCH  27  28
BRANCH  27  70
ATOM     70  CB  VAL A  14      10.571   6.655  23.288  0.00  0.00    +0.027 C 
ATOM     71  CG2 VAL A  14      10.127   6.610  24.736  0.00  0.00    +0.002 C 
ATOM     72  CG1 VAL A  14      11.999   6.149  23.173  0.00  0.00    +0.002 C 
ENDBRANCH  27  70
ENDBRANCH  24  27
ENDBRANCH  21  23
ENDBRANCH  19  21
ENDBRANCH  16  17
BRANCH  16  73
ATOM     73  CB  GLU A  12       9.028   9.870  17.086  0.00  0.00    +0.041 C 
BRANCH  73  74
ATOM     74  CG  GLU A  12       9.186  11.360  16.863  0.00  0.00    +0.116 C 
BRANCH  74  75
ATOM     75  CD  GLU A  12       8.487  11.825  15.607  0.00  0.00    +0.365 C 
ATOM     76  OE2 GLU A  12       7.611  12.720  15.712  0.00  0.00    -0.246 OA
ATOM     77  OE1 GLU A  12       8.814  11.292  14.521  0.00  0.00    -0.246 OA
ENDBRANCH  74  75
ENDBRANCH  73  74
ENDBRANCH  16  73
ENDBRANCH  14  16
ENDBRANCH  11  12
BRANCH  11  78
ATOM     78  CB  VAL A  11      12.489  11.236  20.907  0.00  0.00    +0.027 C 
ATOM     79  CG2 VAL A  11      13.788  11.428  21.669  0.00  0.00    +0.002 C 
ATOM     80  CG1 VAL A  11      11.345  11.953  21.623  0.00  0.00    +0.002 C 
ENDBRANCH  11  78
ENDBRANCH   9  11
ENDBRANCH   6   7
BRANCH   6  81
ATOM     81  CB  SER A  10      15.331   7.247  19.115  0.00  0.00    +0.166 C 
BRANCH  81  82
ATOM     82  OG  SER A  10      16.250   6.558  18.300  0.00  0.00    -0.380 OA
ATOM     83  H   SER A  10      16.323   7.017  17.426  0.00  0.00    +0.211 HD
ENDBRANCH  81  82
ENDBRANCH   6  81
ENDBRANCH   3   6
ENDBRANCH   1   2
BRANCH   1  86
ATOM     84  C   PHE A   8      13.544  11.306  16.480  0.00  0.00    +0.241 C 
ATOM     85  O   PHE A   8      12.522  11.295  17.160  0.00  0.00    -0.273 OA
ATOM     86  N   ARG A   9      13.822  10.374  15.574  0.00  0.00    -0.297 N 
ATOM     87  H   ARG A   9      14.696  10.457  15.016  0.00  0.00    +0.150 HD
BRANCH  84  88
ATOM     88  CA  PHE A   8      14.574  12.424  16.639  0.00  0.00    +0.153 C 
BRANCH  88  91
ATOM     89  C   GLN A   7      16.254  11.064  17.719  0.00  0.00    +0.241 C 
ATOM     90  O   GLN A   7      15.478  10.759  18.629  0.00  0.00    -0.273 OA
ATOM     91  N   PHE A   8      15.915  11.866  16.718  0.00  0.00    -0.297 N 
ATOM     92  H   PHE A   8      16.614  12.098  15.984  0.00  0.00    +0.150 HD
BRANCH  89  93
ATOM     93  CA  GLN A   7      17.671  10.520  17.690  0.00  0.00    +0.149 C 
BRANCH  93  95
ATOM     94  C   CYS A   6      17.510   9.165  15.695  0.00  0.00    +0.242 C 
ATOM     95  N   GLN A   7      18.034  10.210  16.320  0.00  0.00    -0.297 N 
ATOM     96  H   GLN A   7      18.715  10.817  15.821  0.00  0.00    +0.150 HD
ATOM     97  O   CYS A   6      16.729   8.385  16.241  0.00  0.00    -0.273 OA
BRANCH  94  98
ATOM     98  CA  CYS A   6      17.918   8.989  14.235  0.00  0.00    +0.160 C 
BRANCH  98 101
ATOM     99  C   GLY A   5      17.211  11.167  13.421  0.00  0.00    +0.243 C 
ATOM    100  O   GLY A   5      16.043  10.955  13.754  0.00  0.00    -0.273 OA
ATOM    101  N   CYS A   6      18.184  10.283  13.616  0.00  0.00    -0.296 N 
ATOM    102  H   CYS A   6      19.153  10.518  13.322  0.00  0.00    +0.150 HD
BRANCH  99 103
ATOM    103  CA  GLY A   5      17.609  12.481  12.769  0.00  0.00    +0.176 C 
BRANCH 103 106
ATOM    104  C   GLN A   4      18.912  13.382  14.589  0.00  0.00    +0.241 C 
ATOM    105  O   GLN A   4      17.925  13.418  15.322  0.00  0.00    -0.273 OA
ATOM    106  N   GLY A   5      18.848  13.002  13.317  0.00  0.00    -0.295 N 
ATOM    107  H   GLY A   5      19.690  13.078  12.711  0.00  0.00    +0.150 HD
BRANCH 104 108
ATOM    108  CA  GLN A   4      20.293  13.778  15.114  0.00  0.00    +0.149 C 
BRANCH 108 111
ATOM    109  C   PHE A   3      21.515  11.742  14.589  0.00  0.00    +0.241 C 
ATOM    110  O   PHE A   3      20.814  11.076  15.351  0.00  0.00    -0.273 OA
ATOM    111  N   GLN A   4      21.348  13.047  14.419  0.00  0.00    -0.297 N 
ATOM    112  H   GLN A   4      21.983  13.561  13.776  0.00  0.00    +0.150 HD
BRANCH 109 113
ATOM    113  CA  PHE A   3      22.634  11.087  13.786  0.00  0.00    +0.153 C 
BRANCH 113 115
ATOM    114  C   ILE A   2      21.659  11.481  11.589  0.00  0.00    +0.241 C 
ATOM    115  N   PHE A   3      22.685  11.610  12.426  0.00  0.00    -0.297 N 
ATOM    116  H   PHE A   3      23.545  12.096  12.102  0.00  0.00    +0.150 HD
ATOM    117  O   ILE A   2      20.595  10.933  11.902  0.00  0.00    -0.273 OA
BRANCH 114 118
ATOM    118  CA  ILE A   2      21.852  12.069  10.197  0.00  0.00    +0.148 C 
BRANCH 118 121
ATOM    119  C   ARG A   1      21.870  14.420  10.850  0.00  0.00    +0.238 C 
ATOM    120  O   ARG A   1      20.762  14.340  11.376  0.00  0.00    -0.274 OA
ATOM    121  N   ILE A   2      22.471  13.385  10.271  0.00  0.00    -0.297 N 
ATOM    122  H   ILE A   2      23.415  13.520   9.857  0.00  0.00    +0.150 HD
BRANCH 119 123
ATOM    123  CA  ARG A   1      22.652  15.735  10.855  0.00  0.00    +0.145 C 
BRANCH 123 124
ATOM    124  N   ARG A   1      24.032  15.448  11.215  0.00  0.00    -0.238 NA
ATOM    125  H   ARG A   1      24.790  15.591  10.517  0.00  0.00    +0.142 HD
ENDBRANCH 123 124
BRANCH 123 126
ATOM    126  CB  ARG A   1      22.595  16.393   9.476  0.00  0.00    +0.030 C 
BRANCH 126 127
ATOM    127  CG  ARG A   1      21.633  17.578   9.382  0.00  0.00    +0.045 C 
BRANCH 127 128
ATOM    128  CD  ARG A   1      20.197  17.134   9.109  0.00  0.00    +0.174 C 
BRANCH 128 129
ATOM    129  NE  ARG A   1      19.435  18.158   8.386  0.00  0.00    -0.265 N 
ATOM    130  HE  ARG A   1      19.939  19.021   8.097  0.00  0.00    +0.259 HD
ATOM    131  CZ  ARG A   1      18.144  18.062   8.073  0.00  0.00    +0.342 C 
ATOM    132  NH2 ARG A   1      17.446  16.985   8.421  0.00  0.00    -0.292 N 
ATOM    133 HH21 ARG A   1      17.908  16.212   8.941  0.00  0.00    +0.255 HD
ATOM    134 HH22 ARG A   1      16.438  16.916   8.174  0.00  0.00    +0.255 HD
ATOM    135  NH1 ARG A   1      17.548  19.049   7.414  0.00  0.00    -0.292 N 
ATOM    136 HH11 ARG A   1      16.540  18.976   7.169  0.00  0.00    +0.255 HD
ATOM    137 HH12 ARG A   1      18.089  19.895   7.143  0.00  0.00    +0.255 HD
ENDBRANCH 128 129
ENDBRANCH 127 128
ENDBRANCH 126 127
ENDBRANCH 123 126
ENDBRANCH 119 123
ENDBRANCH 118 121
BRANCH 118 138
ATOM    138  CB  ILE A   2      22.712  11.101   9.346  0.00  0.00    +0.027 C 
ATOM    139  CG2 ILE A   2      22.177   9.689   9.454  0.00  0.00    +0.002 C 
BRANCH 138 140
ATOM    140  CG1 ILE A   2      22.717  11.563   7.885  0.00  0.00    +0.002 C 
ATOM    141  CD1 ILE A   2      23.496  10.672   6.947  0.00  0.00    +0.000 C 
ENDBRANCH 138 140
ENDBRANCH 118 138
ENDBRANCH 114 118
ENDBRANCH 113 115
BRANCH 113 142
ATOM    142  CB  PHE A   3      23.974  11.315  14.485  0.00  0.00    +0.055 C 
BRANCH 142 143
ATOM    143  CG  PHE A   3      24.002  10.860  15.920  0.00  0.00    -0.020 A 
ATOM    144  CD2 PHE A   3      23.744  11.755  16.953  0.00  0.00    -0.004 A 
ATOM    145  CE2 PHE A   3      23.792  11.344  18.274  0.00  0.00    -0.000 A 
ATOM    146  CZ  PHE A   3      24.098  10.026  18.578  0.00  0.00    -0.000 A 
ATOM    147  CE1 PHE A   3      24.355   9.126  17.560  0.00  0.00    -0.000 A 
ATOM    148  CD1 PHE A   3      24.306   9.544  16.239  0.00  0.00    -0.004 A 
ENDBRANCH 142 143
ENDBRANCH 113 142
ENDBRANCH 109 113
ENDBRANCH 108 111
BRANCH 108 149
ATOM    149  CB  GLN A   4      20.507  15.288  14.946  0.00  0.00    +0.039 C 
BRANCH 149 150
ATOM    150  CG  GLN A   4      20.559  16.063  16.251  0.00  0.00    +0.087 C 
BRANCH 150 151
ATOM    151  CD  GLN A   4      21.616  15.542  17.219  0.00  0.00    +0.219 C 
ATOM    152  NE2 GLN A   4      21.976  16.367  18.199  0.00  0.00    -0.329 N 
ATOM    153 HE21 GLN A   4      22.690  16.069  18.894  0.00  0.00    +0.145 HD
ATOM    154 HE22 GLN A   4      21.543  17.310  18.270  0.00  0.00    +0.145 HD
ATOM    155  OE1 GLN A   4      22.101  14.411  17.091  0.00  0.00    -0.275 OA
ENDBRANCH 150 151
ENDBRANCH 149 150
ENDBRANCH 108 149
ENDBRANCH 104 108
ENDBRANCH 103 106
ENDBRANCH  99 103
ENDBRANCH  98 101
BRANCH  98 156
ATOM    156  CB  CYS A   6      19.156   8.099  14.131  0.00  0.00    +0.098 C 
ATOM    157  SG  CYS A   6      19.691   7.854  12.421  0.00  0.00    -0.080 S 
ENDBRANCH  98 156
ENDBRANCH  94  98
ENDBRANCH  93  95
BRANCH  93 158
ATOM    158  CB  GLN A   7      18.633  11.555  18.270  0.00  0.00    +0.039 C 
BRANCH 158 159
ATOM    159  CG  GLN A   7      18.319  11.935  19.698  0.00  0.00    +0.087 C 
BRANCH 159 160
ATOM    160  CD  GLN A   7      19.400  12.788  20.319  0.00  0.00    +0.219 C 
ATOM    161  NE2 GLN A   7      19.014  13.628  21.267  0.00  0.00    -0.329 N 
ATOM    162 HE21 GLN A   7      19.712  14.243  21.732  0.00  0.00    +0.145 HD
ATOM    163 HE22 GLN A   7      18.013  13.672  21.547  0.00  0.00    +0.145 HD
ATOM    164  OE1 GLN A   7      20.571  12.695  19.950  0.00  0.00    -0.275 OA
ENDBRANCH 159 160
ENDBRANCH 158 159
ENDBRANCH  93 158
ENDBRANCH  89  93
ENDBRANCH  88  91
BRANCH  88 165
ATOM    165  CB  PHE A   8      14.470  13.397  15.462  0.00  0.00    +0.055 C 
BRANCH 165 166
ATOM    166  CG  PHE A   8      13.052  13.727  15.072  0.00  0.00    -0.020 A 
ATOM    167  CD2 PHE A   8      12.446  14.881  15.527  0.00  0.00    -0.004 A 
ATOM    168  CE2 PHE A   8      11.135  15.174  15.184  0.00  0.00    -0.000 A 
ATOM    169  CZ  PHE A   8      10.424  14.310  14.382  0.00  0.00    -0.000 A 
ATOM    170  CE1 PHE A   8      11.020  13.156  13.920  0.00  0.00    -0.000 A 
ATOM    171  CD1 PHE A   8      12.323  12.869  14.262  0.00  0.00    -0.004 A 
ENDBRANCH 165 166
ENDBRANCH  88 165
ENDBRANCH  84  88
ENDBRANCH   1  86
BRANCH   1 172
ATOM    172  CB  ARG A   9      13.422   8.420  14.131  0.00  0.00    +0.033 C 
BRANCH 172 173
ATOM    173  CG  ARG A   9      12.475   8.471  12.936  0.00  0.00    +0.045 C 
BRANCH 173 174
ATOM    174  CD  ARG A   9      12.227   9.914  12.524  0.00  0.00    +0.174 C 
BRANCH 174 175
ATOM    175  NE  ARG A   9      11.066  10.096  11.650  0.00  0.00    -0.265 N 
ATOM    176  CZ  ARG A   9       9.833   9.673  11.928  0.00  0.00    +0.342 C 
ATOM    177  NH2 ARG A   9       9.584   9.025  13.063  0.00  0.00    -0.292 N 
ATOM    178 HH21 ARG A   9      10.354   8.846  13.739  0.00  0.00    +0.255 HD
ATOM    179 HH22 ARG A   9       8.620   8.698  13.274  0.00  0.00    +0.255 HD
ATOM    180  NH1 ARG A   9       8.841   9.918  11.081  0.00  0.00    -0.292 N 
ATOM    181 HH11 ARG A   9       7.879   9.588  11.298  0.00  0.00    +0.255 HD
ATOM    182 HH12 ARG A   9       9.026  10.440  10.201  0.00  0.00    +0.255 HD
ATOM    183  HE  ARG A   9      11.214  10.591  10.747  0.00  0.00    +0.259 HD
ENDBRANCH 174 175
ENDBRANCH 173 174
ENDBRANCH 172 173
ENDBRANCH   1 172
TORSDOF 74
REMARK  Name = ../refined-set-2016/2p4y/2p4y_pocket.pdb
REMARK  273 active torsions:
REMARK  status: ('A' for Active; 'I' for Inactive)
REMARK    1  A    between atoms: _1  and  _3
REMARK    2  A    between atoms: _3  and  _4
REMARK    3  A    between atoms: _3  and  _6
REMARK    4  A    between atoms: _6  and  _7
REMARK    5  A    between atoms: _12  and  _13
REMARK    6  A    between atoms: _15  and  _17
REMARK    7  A    between atoms: _17  and  _18
REMARK    8  A    between atoms: _17  and  _20
REMARK    9  A    between atoms: _20  and  _21
REMARK   10  A    between atoms: _23  and  _25
REMARK   11  A    between atoms: _25  and  _26
REMARK   12  A    between atoms: _25  and  _28
REMARK   13  A    between atoms: _28  and  _29
REMARK   14  A    between atoms: _36  and  _37
REMARK   15  A    between atoms: _42  and  _44
REMARK   16  A    between atoms: _44  and  _45
REMARK   17  A    between atoms: _44  and  _47
REMARK   18  A    between atoms: _47  and  _48
REMARK   19  A    between atoms: _51  and  _53
REMARK   20  A    between atoms: _53  and  _54
REMARK   21  A    between atoms: _53  and  _56
REMARK   22  A    between atoms: _56  and  _57
REMARK   23  A    between atoms: _60  and  _62
REMARK   24  A    between atoms: _62  and  _63
REMARK   25  A    between atoms: _62  and  _65
REMARK   26  A    between atoms: _65  and  _66
REMARK   27  A    between atoms: _69  and  _71
REMARK   28  A    between atoms: _71  and  _72
REMARK   29  A    between atoms: _71  and  _74
REMARK   30  A    between atoms: _74  and  _75
REMARK   31  A    between atoms: _75  and  _76
REMARK   32  A    between atoms: _76  and  _77
REMARK   33  A    between atoms: _86  and  _88
REMARK   34  A    between atoms: _88  and  _89
REMARK   35  A    between atoms: _88  and  _91
REMARK   36  A    between atoms: _91  and  _92
REMARK   37  A    between atoms: _95  and  _97
REMARK   38  A    between atoms: _97  and  _98
REMARK   39  A    between atoms: _97  and  _100
REMARK   40  A    between atoms: _100  and  _101
REMARK   41  A    between atoms: _107  and  _109
REMARK   42  A    between atoms: _109  and  _110
REMARK   43  A    between atoms: _109  and  _112
REMARK   44  A    between atoms: _112  and  _113
REMARK   45  A    between atoms: _113  and  _114
REMARK   46  A    between atoms: _119  and  _121
REMARK   47  A    between atoms: _121  and  _122
REMARK   48  A    between atoms: _124  and  _126
REMARK   49  A    between atoms: _126  and  _127
REMARK   50  A    between atoms: _126  and  _129
REMARK   51  A    between atoms: _131  and  _133
REMARK   52  A    between atoms: _133  and  _134
REMARK   53  A    between atoms: _133  and  _136
REMARK   54  A    between atoms: _136  and  _137
REMARK   55  A    between atoms: _137  and  _138
REMARK   56  A    between atoms: _143  and  _145
REMARK   57  A    between atoms: _145  and  _146
REMARK   58  A    between atoms: _145  and  _148
REMARK   59  A    between atoms: _148  and  _149
REMARK   60  A    between atoms: _155  and  _157
REMARK   61  A    between atoms: _157  and  _158
REMARK   62  A    between atoms: _157  and  _160
REMARK   63  A    between atoms: _160  and  _161
REMARK   64  A    between atoms: _161  and  _162
REMARK   65  A    between atoms: _162  and  _163
REMARK   66  A    between atoms: _172  and  _174
REMARK   67  A    between atoms: _174  and  _175
REMARK   68  A    between atoms: _174  and  _177
REMARK   69  A    between atoms: _177  and  _178
REMARK   70  A    between atoms: _180  and  _182
REMARK   71  A    between atoms: _182  and  _183
REMARK   72  A    between atoms: _182  and  _185
REMARK   73  A    between atoms: _188  and  _190
REMARK   74  A    between atoms: _190  and  _191
REMARK   75  A    between atoms: _190  and  _193
REMARK   76  A    between atoms: _193  and  _194
REMARK   77  A    between atoms: _194  and  _195
REMARK   78  A    between atoms: _198  and  _200
REMARK   79  A    between atoms: _200  and  _201
REMARK   80  A    between atoms: _204  and  _206
REMARK   81  A    between atoms: _206  and  _207
REMARK   82  A    between atoms: _206  and  _209
REMARK   83  A    between atoms: _212  and  _214
REMARK   84  A    between atoms: _214  and  _215
REMARK   85  A    between atoms: _214  and  _217
REMARK   86  A    between atoms: _217  and  _218
REMARK   87  A    between atoms: _218  and  _219
REMARK   88  A    between atoms: _224  and  _226
REMARK   89  A    between atoms: _226  and  _227
REMARK   90  A    between atoms: _226  and  _229
REMARK   91  A    between atoms: _229  and  _230
REMARK   92  A    between atoms: _230  and  _231
REMARK   93  A    between atoms: _234  and  _236
REMARK   94  A    between atoms: _236  and  _237
REMARK   95  A    between atoms: _236  and  _239
REMARK   96  A    between atoms: _239  and  _240
REMARK   97  A    between atoms: _243  and  _245
REMARK   98  A    between atoms: _245  and  _246
REMARK   99  A    between atoms: _245  and  _248
REMARK  100  A    between atoms: _248  and  _249
REMARK  101  A    between atoms: _252  and  _254
REMARK  102  A    between atoms: _254  and  _255
REMARK  103  A    between atoms: _254  and  _257
REMARK  104  A    between atoms: _257  and  _258
REMARK  105  A    between atoms: _263  and  _264
REMARK  106  A    between atoms: _266  and  _268
REMARK  107  A    between atoms: _268  and  _269
REMARK  108  A    between atoms: _268  and  _271
REMARK  109  A    between atoms: _274  and  _276
REMARK  110  A    between atoms: _276  and  _277
REMARK  111  A    between atoms: _276  and  _279
REMARK  112  A    between atoms: _279  and  _280
REMARK  113  A    between atoms: _285  and  _287
REMARK  114  A    between atoms: _287  and  _288
REMARK  115  A    between atoms: _287  and  _290
REMARK  116  A    between atoms: _290  and  _291
REMARK  117  A    between atoms: _294  and  _296
REMARK  118  A    between atoms: _296  and  _297
REMARK  119  A    between atoms: _296  and  _299
REMARK  120  A    between atoms: _299  and  _300
REMARK  121  A    between atoms: _303  and  _305
REMARK  122  A    between atoms: _305  and  _306
REMARK  123  A    between atoms: _305  and  _308
REMARK  124  A    between atoms: _308  and  _309
REMARK  125  A    between atoms: _314  and  _315
REMARK  126  A    between atoms: _317  and  _319
REMARK  127  A    between atoms: _319  and  _320
REMARK  128  A    between atoms: _319  and  _322
REMARK  129  A    between atoms: _322  and  _323
REMARK  130  A    between atoms: _326  and  _328
REMARK  131  A    between atoms: _328  and  _329
REMARK  132  A    between atoms: _328  and  _331
REMARK  133  A    between atoms: _331  and  _332
REMARK  134  A    between atoms: _332  and  _333
REMARK  135  A    between atoms: _335  and  _337
REMARK  136  A    between atoms: _337  and  _338
REMARK  137  A    between atoms: _337  and  _340
REMARK  138  A    between atoms: _340  and  _341
REMARK  139  A    between atoms: _344  and  _346
REMARK  140  A    between atoms: _346  and  _347
REMARK  141  A    between atoms: _350  and  _352
REMARK  142  A    between atoms: _352  and  _353
REMARK  143  A    between atoms: _352  and  _355
REMARK  144  A    between atoms: _355  and  _356
REMARK  145  A    between atoms: _358  and  _360
REMARK  146  A    between atoms: _360  and  _361
REMARK  147  A    between atoms: _360  and  _363
REMARK  148  A    between atoms: _363  and  _364
REMARK  149  A    between atoms: _367  and  _369
REMARK  150  A    between atoms: _369  and  _370
REMARK  151  A    between atoms: _369  and  _372
REMARK  152  A    between atoms: _372  and  _373
REMARK  153  A    between atoms: _373  and  _374
REMARK  154  A    between atoms: _376  and  _378
REMARK  155  A    between atoms: _378  and  _379
REMARK  156  A    between atoms: _381  and  _383
REMARK  157  A    between atoms: _383  and  _384
REMARK  158  A    between atoms: _383  and  _386
REMARK  159  A    between atoms: _389  and  _391
REMARK  160  A    between atoms: _391  and  _392
REMARK  161  A    between atoms: _391  and  _394
REMARK  162  A    between atoms: _394  and  _395
REMARK  163  A    between atoms: _398  and  _400
REMARK  164  A    between atoms: _400  and  _401
REMARK  165  A    between atoms: _400  and  _403
REMARK  166  A    between atoms: _403  and  _404
REMARK  167  A    between atoms: _407  and  _409
REMARK  168  A    between atoms: _409  and  _410
REMARK  169  A    between atoms: _409  and  _412
REMARK  170  A    between atoms: _412  and  _413
REMARK  171  A    between atoms: _415  and  _417
REMARK  172  A    between atoms: _417  and  _418
REMARK  173  A    between atoms: _417  and  _420
REMARK  174  A    between atoms: _420  and  _421
REMARK  175  A    between atoms: _421  and  _422
REMARK  176  A    between atoms: _425  and  _427
REMARK  177  A    between atoms: _427  and  _428
REMARK  178  A    between atoms: _430  and  _432
REMARK  179  A    between atoms: _432  and  _433
REMARK  180  A    between atoms: _432  and  _435
REMARK  181  A    between atoms: _435  and  _436
REMARK  182  A    between atoms: _436  and  _437
REMARK  183  A    between atoms: _442  and  _444
REMARK  184  A    between atoms: _444  and  _445
REMARK  185  A    between atoms: _447  and  _449
REMARK  186  A    between atoms: _449  and  _450
REMARK  187  A    between atoms: _449  and  _452
REMARK  188  A    between atoms: _452  and  _453
REMARK  189  A    between atoms: _459  and  _461
REMARK  190  A    between atoms: _461  and  _462
REMARK  191  A    between atoms: _461  and  _464
REMARK  192  A    between atoms: _464  and  _465
REMARK  193  A    between atoms: _465  and  _466
REMARK  194  A    between atoms: _468  and  _470
REMARK  195  A    between atoms: _470  and  _471
REMARK  196  A    between atoms: _470  and  _473
REMARK  197  A    between atoms: _473  and  _474
REMARK  198  A    between atoms: _477  and  _479
REMARK  199  A    between atoms: _479  and  _480
REMARK  200  A    between atoms: _479  and  _482
REMARK  201  A    between atoms: _482  and  _483
REMARK  202  A    between atoms: _483  and  _484
REMARK  203  A    between atoms: _484  and  _485
REMARK  204  A    between atoms: _494  and  _496
REMARK  205  A    between atoms: _496  and  _497
REMARK  206  A    between atoms: _496  and  _499
REMARK  207  A    between atoms: _499  and  _500
REMARK  208  A    between atoms: _506  and  _508
REMARK  209  A    between atoms: _508  and  _509
REMARK  210  A    between atoms: _508  and  _511
REMARK  211  A    between atoms: _511  and  _512
REMARK  212  A    between atoms: _515  and  _517
REMARK  213  A    between atoms: _517  and  _518
REMARK  214  A    between atoms: _517  and  _520
REMARK  215  A    between atoms: _520  and  _521
REMARK  216  A    between atoms: _524  and  _526
REMARK  217  A    between atoms: _526  and  _527
REMARK  218  A    between atoms: _526  and  _529
REMARK  219  A    between atoms: _529  and  _530
REMARK  220  A    between atoms: _536  and  _538
REMARK  221  A    between atoms: _538  and  _539
REMARK  222  A    between atoms: _538  and  _541
REMARK  223  A    between atoms: _541  and  _542
REMARK  224  A    between atoms: _542  and  _543
REMARK  225  A    between atoms: _545  and  _547
REMARK  226  A    between atoms: _547  and  _548
REMARK  227  A    between atoms: _547  and  _550
REMARK  228  A    between atoms: _550  and  _551
REMARK  229  A    between atoms: _551  and  _552
REMARK  230  A    between atoms: _556  and  _557
REMARK  231  A    between atoms: _562  and  _564
REMARK  232  A    between atoms: _564  and  _565
REMARK  233  A    between atoms: _564  and  _567
REMARK  234  A    between atoms: _567  and  _568
REMARK  235  A    between atoms: _568  and  _569
REMARK  236  A    between atoms: _569  and  _570
REMARK  237  A    between atoms: _570  and  _571
REMARK  238  A    between atoms: _575  and  _577
REMARK  239  A    between atoms: _577  and  _578
REMARK  240  A    between atoms: _577  and  _580
REMARK  241  A    between atoms: _580  and  _581
REMARK  242  A    between atoms: _587  and  _589
REMARK  243  A    between atoms: _589  and  _590
REMARK  244  A    between atoms: _589  and  _592
REMARK  245  A    between atoms: _592  and  _593
REMARK  246  A    between atoms: _596  and  _598
REMARK  247  A    between atoms: _598  and  _599
REMARK  248  A    between atoms: _598  and  _601
REMARK  249  A    between atoms: _601  and  _602
REMARK  250  A    between atoms: _605  and  _607
REMARK  251  A    between atoms: _607  and  _608
REMARK  252  A    between atoms: _607  and  _610
REMARK  253  A    between atoms: _613  and  _615
REMARK  254  A    between atoms: _615  and  _616
REMARK  255  A    between atoms: _615  and  _618
REMARK  256  A    between atoms: _618  and  _619
REMARK  257  A    between atoms: _624  and  _626
REMARK  258  A    between atoms: _626  and  _627
REMARK  259  A    between atoms: _626  and  _629
REMARK  260  A    between atoms: _629  and  _630
REMARK  261  A    between atoms: _633  and  _635
REMARK  262  A    between atoms: _635  and  _636
REMARK  263  A    between atoms: _635  and  _638
REMARK  264  A    between atoms: _638  and  _639
REMARK  265  A    between atoms: _642  and  _644
REMARK  266  A    between atoms: _644  and  _645
REMARK  267  A    between atoms: _644  and  _647
REMARK  268  A    between atoms: _647  and  _648
REMARK  269  A    between atoms: _651  and  _653
REMARK  270  A    between atoms: _653  and  _654
REMARK  271  A    between atoms: _653  and  _656
REMARK  272  A    between atoms: _656  and  _657
REMARK  273  A    between atoms: _662  and  _663
REMARK                            x       y       z     vdW  Elec       q    Type
REMARK                         _______ _______ _______ _____ _____    ______ ____
ROOT
ATOM      1  CG  TYR A   1       2.150  -1.628  21.644  0.00  0.00    -0.020 A 
ATOM      2  CD2 TYR A   1       2.920  -2.568  22.320  0.00  0.00    -0.001 A 
ATOM      3  CE2 TYR A   1       2.690  -3.921  22.165  0.00  0.00    +0.036 A 
ATOM      4  CZ  TYR A   1       1.688  -4.351  21.321  0.00  0.00    +0.134 A 
ATOM      5  CE1 TYR A   1       0.912  -3.441  20.632  0.00  0.00    +0.036 A 
ATOM      6  CD1 TYR A   1       1.145  -2.086  20.799  0.00  0.00    -0.001 A 
ENDROOT
BRANCH   4   7
ATOM      7  OH  TYR A   1       1.456  -5.697  21.168  0.00  0.00    -0.506 OA
ATOM      8  HH  TYR A   1       2.272  -6.134  20.817  0.00  0.00    +0.292 HD
ENDBRANCH   4   7
BRANCH   1   9
ATOM      9  CB  TYR A   1       2.374  -0.155  21.846  0.00  0.00    +0.051 C 
BRANCH   9  10
ATOM     10  CA  TYR A   1       1.333   0.476  22.772  0.00  0.00    +0.137 C 
BRANCH  10  11
ATOM     11  N   TYR A   1       1.630   1.878  22.971  0.00  0.00    -0.239 NA
ATOM     12  H   TYR A   1       2.513   2.274  22.590  0.00  0.00    +0.142 HD
ENDBRANCH  10  11
BRANCH  10  13
ATOM     13  C   TYR A   1       1.319  -0.243  24.119  0.00  0.00    +0.224 C 
ATOM     14  O   TYR A   1       0.380  -0.967  24.434  0.00  0.00    -0.287 OA
ENDBRANCH  10  13
ENDBRANCH   9  10
ENDBRANCH   1   9
TORSDOF 5
REMARK  Name = ../refined-set-2016/2p4y/2p4y_pocket.pdb
REMARK  273 active torsions:
REMARK  status: ('A' for Active; 'I' for Inactive)
REMARK    1  A    between atoms: _1  and  _3
REMARK    2  A    between atoms: _3  and  _4
REMARK    3  A    between atoms: _3  and  _6
REMARK    4  A    between atoms: _6  and  _7
REMARK    5  A    between atoms: _12  and  _13
REMARK    6  A    between atoms: _15  and  _17
REMARK    7  A    between atoms: _17  and  _18
REMARK    8  A    between atoms: _17  and  _20
REMARK    9  A    between atoms: _20  and  _21
REMARK   10  A    between atoms: _23  and  _25
REMARK   11  A    between atoms: _25  and  _26
REMARK   12  A    between atoms: _25  and  _28
REMARK   13  A    between atoms: _28  and  _29
REMARK   14  A    between atoms: _36  and  _37
REMARK   15  A    between atoms: _42  and  _44
REMARK   16  A    between atoms: _44  and  _45
REMARK   17  A    between atoms: _44  and  _47
REMARK   18  A    between atoms: _47  and  _48
REMARK   19  A    between atoms: _51  and  _53
REMARK   20  A    between atoms: _53  and  _54
REMARK   21  A    between atoms: _53  and  _56
REMARK   22  A    between atoms: _56  and  _57
REMARK   23  A    between atoms: _60  and  _62
REMARK   24  A    between atoms: _62  and  _63
REMARK   25  A    between atoms: _62  and  _65
REMARK   26  A    between atoms: _65  and  _66
REMARK   27  A    between atoms: _69  and  _71
REMARK   28  A    between atoms: _71  and  _72
REMARK   29  A    between atoms: _71  and  _74
REMARK   30  A    between atoms: _74  and  _75
REMARK   31  A    between atoms: _75  and  _76
REMARK   32  A    between atoms: _76  and  _77
REMARK   33  A    between atoms: _86  and  _88
REMARK   34  A    between atoms: _88  and  _89
REMARK   35  A    between atoms: _88  and  _91
REMARK   36  A    between atoms: _91  and  _92
REMARK   37  A    between atoms: _95  and  _97
REMARK   38  A    between atoms: _97  and  _98
REMARK   39  A    between atoms: _97  and  _100
REMARK   40  A    between atoms: _100  and  _101
REMARK   41  A    between atoms: _107  and  _109
REMARK   42  A    between atoms: _109  and  _110
REMARK   43  A    between atoms: _109  and  _112
REMARK   44  A    between atoms: _112  and  _113
REMARK   45  A    between atoms: _113  and  _114
REMARK   46  A    between atoms: _119  and  _121
REMARK   47  A    between atoms: _121  and  _122
REMARK   48  A    between atoms: _124  and  _126
REMARK   49  A    between atoms: _126  and  _127
REMARK   50  A    between atoms: _126  and  _129
REMARK   51  A    between atoms: _131  and  _133
REMARK   52  A    between atoms: _133  and  _134
REMARK   53  A    between atoms: _133  and  _136
REMARK   54  A    between atoms: _136  and  _137
REMARK   55  A    between atoms: _137  and  _138
REMARK   56  A    between atoms: _143  and  _145
REMARK   57  A    between atoms: _145  and  _146
REMARK   58  A    between atoms: _145  and  _148
REMARK   59  A    between atoms: _148  and  _149
REMARK   60  A    between atoms: _155  and  _157
REMARK   61  A    between atoms: _157  and  _158
REMARK   62  A    between atoms: _157  and  _160
REMARK   63  A    between atoms: _160  and  _161
REMARK   64  A    between atoms: _161  and  _162
REMARK   65  A    between atoms: _162  and  _163
REMARK   66  A    between atoms: _172  and  _174
REMARK   67  A    between atoms: _174  and  _175
REMARK   68  A    between atoms: _174  and  _177
REMARK   69  A    between atoms: _177  and  _178
REMARK   70  A    between atoms: _180  and  _182
REMARK   71  A    between atoms: _182  and  _183
REMARK   72  A    between atoms: _182  and  _185
REMARK   73  A    between atoms: _188  and  _190
REMARK   74  A    between atoms: _190  and  _191
REMARK   75  A    between atoms: _190  and  _193
REMARK   76  A    between atoms: _193  and  _194
REMARK   77  A    between atoms: _194  and  _195
REMARK   78  A    between atoms: _198  and  _200
REMARK   79  A    between atoms: _200  and  _201
REMARK   80  A    between atoms: _204  and  _206
REMARK   81  A    between atoms: _206  and  _207
REMARK   82  A    between atoms: _206  and  _209
REMARK   83  A    between atoms: _212  and  _214
REMARK   84  A    between atoms: _214  and  _215
REMARK   85  A    between atoms: _214  and  _217
REMARK   86  A    between atoms: _217  and  _218
REMARK   87  A    between atoms: _218  and  _219
REMARK   88  A    between atoms: _224  and  _226
REMARK   89  A    between atoms: _226  and  _227
REMARK   90  A    between atoms: _226  and  _229
REMARK   91  A    between atoms: _229  and  _230
REMARK   92  A    between atoms: _230  and  _231
REMARK   93  A    between atoms: _234  and  _236
REMARK   94  A    between atoms: _236  and  _237
REMARK   95  A    between atoms: _236  and  _239
REMARK   96  A    between atoms: _239  and  _240
REMARK   97  A    between atoms: _243  and  _245
REMARK   98  A    between atoms: _245  and  _246
REMARK   99  A    between atoms: _245  and  _248
REMARK  100  A    between atoms: _248  and  _249
REMARK  101  A    between atoms: _252  and  _254
REMARK  102  A    between atoms: _254  and  _255
REMARK  103  A    between atoms: _254  and  _257
REMARK  104  A    between atoms: _257  and  _258
REMARK  105  A    between atoms: _263  and  _264
REMARK  106  A    between atoms: _266  and  _268
REMARK  107  A    between atoms: _268  and  _269
REMARK  108  A    between atoms: _268  and  _271
REMARK  109  A    between atoms: _274  and  _276
REMARK  110  A    between atoms: _276  and  _277
REMARK  111  A    between atoms: _276  and  _279
REMARK  112  A    between atoms: _279  and  _280
REMARK  113  A    between atoms: _285  and  _287
REMARK  114  A    between atoms: _287  and  _288
REMARK  115  A    between atoms: _287  and  _290
REMARK  116  A    between atoms: _290  and  _291
REMARK  117  A    between atoms: _294  and  _296
REMARK  118  A    between atoms: _296  and  _297
REMARK  119  A    between atoms: _296  and  _299
REMARK  120  A    between atoms: _299  and  _300
REMARK  121  A    between atoms: _303  and  _305
REMARK  122  A    between atoms: _305  and  _306
REMARK  123  A    between atoms: _305  and  _308
REMARK  124  A    between atoms: _308  and  _309
REMARK  125  A    between atoms: _314  and  _315
REMARK  126  A    between atoms: _317  and  _319
REMARK  127  A    between atoms: _319  and  _320
REMARK  128  A    between atoms: _319  and  _322
REMARK  129  A    between atoms: _322  and  _323
REMARK  130  A    between atoms: _326  and  _328
REMARK  131  A    between atoms: _328  and  _329
REMARK  132  A    between atoms: _328  and  _331
REMARK  133  A    between atoms: _331  and  _332
REMARK  134  A    between atoms: _332  and  _333
REMARK  135  A    between atoms: _335  and  _337
REMARK  136  A    between atoms: _337  and  _338
REMARK  137  A    between atoms: _337  and  _340
REMARK  138  A    between atoms: _340  and  _341
REMARK  139  A    between atoms: _344  and  _346
REMARK  140  A    between atoms: _346  and  _347
REMARK  141  A    between atoms: _350  and  _352
REMARK  142  A    between atoms: _352  and  _353
REMARK  143  A    between atoms: _352  and  _355
REMARK  144  A    between atoms: _355  and  _356
REMARK  145  A    between atoms: _358  and  _360
REMARK  146  A    between atoms: _360  and  _361
REMARK  147  A    between atoms: _360  and  _363
REMARK  148  A    between atoms: _363  and  _364
REMARK  149  A    between atoms: _367  and  _369
REMARK  150  A    between atoms: _369  and  _370
REMARK  151  A    between atoms: _369  and  _372
REMARK  152  A    between atoms: _372  and  _373
REMARK  153  A    between atoms: _373  and  _374
REMARK  154  A    between atoms: _376  and  _378
REMARK  155  A    between atoms: _378  and  _379
REMARK  156  A    between atoms: _381  and  _383
REMARK  157  A    between atoms: _383  and  _384
REMARK  158  A    between atoms: _383  and  _386
REMARK  159  A    between atoms: _389  and  _391
REMARK  160  A    between atoms: _391  and  _392
REMARK  161  A    between atoms: _391  and  _394
REMARK  162  A    between atoms: _394  and  _395
REMARK  163  A    between atoms: _398  and  _400
REMARK  164  A    between atoms: _400  and  _401
REMARK  165  A    between atoms: _400  and  _403
REMARK  166  A    between atoms: _403  and  _404
REMARK  167  A    between atoms: _407  and  _409
REMARK  168  A    between atoms: _409  and  _410
REMARK  169  A    between atoms: _409  and  _412
REMARK  170  A    between atoms: _412  and  _413
REMARK  171  A    between atoms: _415  and  _417
REMARK  172  A    between atoms: _417  and  _418
REMARK  173  A    between atoms: _417  and  _420
REMARK  174  A    between atoms: _420  and  _421
REMARK  175  A    between atoms: _421  and  _422
REMARK  176  A    between atoms: _425  and  _427
REMARK  177  A    between atoms: _427  and  _428
REMARK  178  A    between atoms: _430  and  _432
REMARK  179  A    between atoms: _432  and  _433
REMARK  180  A    between atoms: _432  and  _435
REMARK  181  A    between atoms: _435  and  _436
REMARK  182  A    between atoms: _436  and  _437
REMARK  183  A    between atoms: _442  and  _444
REMARK  184  A    between atoms: _444  and  _445
REMARK  185  A    between atoms: _447  and  _449
REMARK  186  A    between atoms: _449  and  _450
REMARK  187  A    between atoms: _449  and  _452
REMARK  188  A    between atoms: _452  and  _453
REMARK  189  A    between atoms: _459  and  _461
REMARK  190  A    between atoms: _461  and  _462
REMARK  191  A    between atoms: _461  and  _464
REMARK  192  A    between atoms: _464  and  _465
REMARK  193  A    between atoms: _465  and  _466
REMARK  194  A    between atoms: _468  and  _470
REMARK  195  A    between atoms: _470  and  _471
REMARK  196  A    between atoms: _470  and  _473
REMARK  197  A    between atoms: _473  and  _474
REMARK  198  A    between atoms: _477  and  _479
REMARK  199  A    between atoms: _479  and  _480
REMARK  200  A    between atoms: _479  and  _482
REMARK  201  A    between atoms: _482  and  _483
REMARK  202  A    between atoms: _483  and  _484
REMARK  203  A    between atoms: _484  and  _485
REMARK  204  A    between atoms: _494  and  _496
REMARK  205  A    between atoms: _496  and  _497
REMARK  206  A    between atoms: _496  and  _499
REMARK  207  A    between atoms: _499  and  _500
REMARK  208  A    between atoms: _506  and  _508
REMARK  209  A    between atoms: _508  and  _509
REMARK  210  A    between atoms: _508  and  _511
REMARK  211  A    between atoms: _511  and  _512
REMARK  212  A    between atoms: _515  and  _517
REMARK  213  A    between atoms: _517  and  _518
REMARK  214  A    between atoms: _517  and  _520
REMARK  215  A    between atoms: _520  and  _521
REMARK  216  A    between atoms: _524  and  _526
REMARK  217  A    between atoms: _526  and  _527
REMARK  218  A    between atoms: _526  and  _529
REMARK  219  A    between atoms: _529  and  _530
REMARK  220  A    between atoms: _536  and  _538
REMARK  221  A    between atoms: _538  and  _539
REMARK  222  A    between atoms: _538  and  _541
REMARK  223  A    between atoms: _541  and  _542
REMARK  224  A    between atoms: _542  and  _543
REMARK  225  A    between atoms: _545  and  _547
REMARK  226  A    between atoms: _547  and  _548
REMARK  227  A    between atoms: _547  and  _550
REMARK  228  A    between atoms: _550  and  _551
REMARK  229  A    between atoms: _551  and  _552
REMARK  230  A    between atoms: _556  and  _557
REMARK  231  A    between atoms: _562  and  _564
REMARK  232  A    between atoms: _564  and  _565
REMARK  233  A    between atoms: _564  and  _567
REMARK  234  A    between atoms: _567  and  _568
REMARK  235  A    between atoms: _568  and  _569
REMARK  236  A    between atoms: _569  and  _570
REMARK  237  A    between atoms: _570  and  _571
REMARK  238  A    between atoms: _575  and  _577
REMARK  239  A    between atoms: _577  and  _578
REMARK  240  A    between atoms: _577  and  _580
REMARK  241  A    between atoms: _580  and  _581
REMARK  242  A    between atoms: _587  and  _589
REMARK  243  A    between atoms: _589  and  _590
REMARK  244  A    between atoms: _589  and  _592
REMARK  245  A    between atoms: _592  and  _593
REMARK  246  A    between atoms: _596  and  _598
REMARK  247  A    between atoms: _598  and  _599
REMARK  248  A    between atoms: _598  and  _601
REMARK  249  A    between atoms: _601  and  _602
REMARK  250  A    between atoms: _605  and  _607
REMARK  251  A    between atoms: _607  and  _608
REMARK  252  A    between atoms: _607  and  _610
REMARK  253  A    between atoms: _613  and  _615
REMARK  254  A    between atoms: _615  and  _616
REMARK  255  A    between atoms: _615  and  _618
REMARK  256  A    between atoms: _618  and  _619
REMARK  257  A    between atoms: _624  and  _626
REMARK  258  A    between atoms: _626  and  _627
REMARK  259  A    between atoms: _626  and  _629
REMARK  260  A    between atoms: _629  and  _630
REMARK  261  A    between atoms: _633  and  _635
REMARK  262  A    between atoms: _635  and  _636
REMARK  263  A    between atoms: _635  and  _638
REMARK  264  A    between atoms: _638  and  _639
REMARK  265  A    between atoms: _642  and  _644
REMARK  266  A    between atoms: _644  and  _645
REMARK  267  A    between atoms: _644  and  _647
REMARK  268  A    between atoms: _647  and  _648
REMARK  269  A    between atoms: _651  and  _653
REMARK  270  A    between atoms: _653  and  _654
REMARK  271  A    between atoms: _653  and  _656
REMARK  272  A    between atoms: _656  and  _657
REMARK  273  A    between atoms: _662  and  _663
REMARK                            x       y       z     vdW  Elec       q    Type
REMARK                         _______ _______ _______ _____ _____    ______ ____
ROOT
ATOM      1  C   VAL A   1      12.873   0.423  23.805  0.00  0.00    +0.238 C 
ATOM      2  N   HIS A   2      14.159   0.381  24.140  0.00  0.00    -0.298 N 
ATOM      3  H   HIS A   2      14.441   0.382  25.141  0.00  0.00    +0.150 HD
ATOM      4  O   VAL A   1      12.509   0.460  22.629  0.00  0.00    -0.274 OA
ENDROOT
BRANCH   1   5
ATOM      5  CA  VAL A   1      11.836   0.400  24.928  0.00  0.00    +0.145 C 
BRANCH   5   6
ATOM      6  CB  VAL A   1      11.471   1.852  25.333  0.00  0.00    +0.025 C 
ATOM      7  CG2 VAL A   1      12.717   2.609  25.774  0.00  0.00    +0.002 C 
ATOM      8  CG1 VAL A   1      10.790   2.553  24.175  0.00  0.00    +0.002 C 
ENDBRANCH   5   6
BRANCH   5   9
ATOM      9  N   VAL A   1      12.239  -0.383  26.084  0.00  0.00    -0.238 NA
ATOM     10  H   VAL A   1      12.424   0.087  26.993  0.00  0.00    +0.142 HD
ENDBRANCH   5   9
ENDBRANCH   1   5
BRANCH   2  11
ATOM     11  CA  HIS A   2      15.175   0.334  23.086  0.00  0.00    +0.143 C 
BRANCH  11  12
ATOM     12  C   HIS A   2      15.302  -1.023  22.405  0.00  0.00    +0.227 C 
ATOM     13  O   HIS A   2      15.475  -1.094  21.190  0.00  0.00    -0.286 OA
ENDBRANCH  11  12
BRANCH  11  14
ATOM     14  CB  HIS A   2      16.541   0.781  23.619  0.00  0.00    +0.075 C 
BRANCH  14  15
ATOM     15  CG  HIS A   2      16.736   2.265  23.574  0.00  0.00    +0.082 A 
ATOM     16  ND1 HIS A   2      16.283   3.106  24.570  0.00  0.00    -0.227 NA
ATOM     17  CE1 HIS A   2      16.532   4.360  24.231  0.00  0.00    +0.199 A 
ATOM     18  NE2 HIS A   2      17.134   4.362  23.054  0.00  0.00    -0.221 NA
ATOM     19  CD2 HIS A   2      17.276   3.064  22.623  0.00  0.00    +0.115 A 
ENDBRANCH  14  15
ENDBRANCH  11  14
ENDBRANCH   2  11
TORSDOF 7
REMARK  Name = ../refined-set-2016/2p4y/2p4y_pocket.pdb
REMARK  273 active torsions:
REMARK  status: ('A' for Active; 'I' for Inactive)
REMARK    1  A    between atoms: _1  and  _3
REMARK    2  A    between atoms: _3  and  _4
REMARK    3  A    between atoms: _3  and  _6
REMARK    4  A    between atoms: _6  and  _7
REMARK    5  A    between atoms: _12  and  _13
REMARK    6  A    between atoms: _15  and  _17
REMARK    7  A    between atoms: _17  and  _18
REMARK    8  A    between atoms: _17  and  _20
REMARK    9  A    between atoms: _20  and  _21
REMARK   10  A    between atoms: _23  and  _25
REMARK   11  A    between atoms: _25  and  _26
REMARK   12  A    between atoms: _25  and  _28
REMARK   13  A    between atoms: _28  and  _29
REMARK   14  A    between atoms: _36  and  _37
REMARK   15  A    between atoms: _42  and  _44
REMARK   16  A    between atoms: _44  and  _45
REMARK   17  A    between atoms: _44  and  _47
REMARK   18  A    between atoms: _47  and  _48
REMARK   19  A    between atoms: _51  and  _53
REMARK   20  A    between atoms: _53  and  _54
REMARK   21  A    between atoms: _53  and  _56
REMARK   22  A    between atoms: _56  and  _57
REMARK   23  A    between atoms: _60  and  _62
REMARK   24  A    between atoms: _62  and  _63
REMARK   25  A    between atoms: _62  and  _65
REMARK   26  A    between atoms: _65  and  _66
REMARK   27  A    between atoms: _69  and  _71
REMARK   28  A    between atoms: _71  and  _72
REMARK   29  A    between atoms: _71  and  _74
REMARK   30  A    between atoms: _74  and  _75
REMARK   31  A    between atoms: _75  and  _76
REMARK   32  A    between atoms: _76  and  _77
REMARK   33  A    between atoms: _86  and  _88
REMARK   34  A    between atoms: _88  and  _89
REMARK   35  A    between atoms: _88  and  _91
REMARK   36  A    between atoms: _91  and  _92
REMARK   37  A    between atoms: _95  and  _97
REMARK   38  A    between atoms: _97  and  _98
REMARK   39  A    between atoms: _97  and  _100
REMARK   40  A    between atoms: _100  and  _101
REMARK   41  A    between atoms: _107  and  _109
REMARK   42  A    between atoms: _109  and  _110
REMARK   43  A    between atoms: _109  and  _112
REMARK   44  A    between atoms: _112  and  _113
REMARK   45  A    between atoms: _113  and  _114
REMARK   46  A    between atoms: _119  and  _121
REMARK   47  A    between atoms: _121  and  _122
REMARK   48  A    between atoms: _124  and  _126
REMARK   49  A    between atoms: _126  and  _127
REMARK   50  A    between atoms: _126  and  _129
REMARK   51  A    between atoms: _131  and  _133
REMARK   52  A    between atoms: _133  and  _134
REMARK   53  A    between atoms: _133  and  _136
REMARK   54  A    between atoms: _136  and  _137
REMARK   55  A    between atoms: _137  and  _138
REMARK   56  A    between atoms: _143  and  _145
REMARK   57  A    between atoms: _145  and  _146
REMARK   58  A    between atoms: _145  and  _148
REMARK   59  A    between atoms: _148  and  _149
REMARK   60  A    between atoms: _155  and  _157
REMARK   61  A    between atoms: _157  and  _158
REMARK   62  A    between atoms: _157  and  _160
REMARK   63  A    between atoms: _160  and  _161
REMARK   64  A    between atoms: _161  and  _162
REMARK   65  A    between atoms: _162  and  _163
REMARK   66  A    between atoms: _172  and  _174
REMARK   67  A    between atoms: _174  and  _175
REMARK   68  A    between atoms: _174  and  _177
REMARK   69  A    between atoms: _177  and  _178
REMARK   70  A    between atoms: _180  and  _182
REMARK   71  A    between atoms: _182  and  _183
REMARK   72  A    between atoms: _182  and  _185
REMARK   73  A    between atoms: _188  and  _190
REMARK   74  A    between atoms: _190  and  _191
REMARK   75  A    between atoms: _190  and  _193
REMARK   76  A    between atoms: _193  and  _194
REMARK   77  A    between atoms: _194  and  _195
REMARK   78  A    between atoms: _198  and  _200
REMARK   79  A    between atoms: _200  and  _201
REMARK   80  A    between atoms: _204  and  _206
REMARK   81  A    between atoms: _206  and  _207
REMARK   82  A    between atoms: _206  and  _209
REMARK   83  A    between atoms: _212  and  _214
REMARK   84  A    between atoms: _214  and  _215
REMARK   85  A    between atoms: _214  and  _217
REMARK   86  A    between atoms: _217  and  _218
REMARK   87  A    between atoms: _218  and  _219
REMARK   88  A    between atoms: _224  and  _226
REMARK   89  A    between atoms: _226  and  _227
REMARK   90  A    between atoms: _226  and  _229
REMARK   91  A    between atoms: _229  and  _230
REMARK   92  A    between atoms: _230  and  _231
REMARK   93  A    between atoms: _234  and  _236
REMARK   94  A    between atoms: _236  and  _237
REMARK   95  A    between atoms: _236  and  _239
REMARK   96  A    between atoms: _239  and  _240
REMARK   97  A    between atoms: _243  and  _245
REMARK   98  A    between atoms: _245  and  _246
REMARK   99  A    between atoms: _245  and  _248
REMARK  100  A    between atoms: _248  and  _249
REMARK  101  A    between atoms: _252  and  _254
REMARK  102  A    between atoms: _254  and  _255
REMARK  103  A    between atoms: _254  and  _257
REMARK  104  A    between atoms: _257  and  _258
REMARK  105  A    between atoms: _263  and  _264
REMARK  106  A    between atoms: _266  and  _268
REMARK  107  A    between atoms: _268  and  _269
REMARK  108  A    between atoms: _268  and  _271
REMARK  109  A    between atoms: _274  and  _276
REMARK  110  A    between atoms: _276  and  _277
REMARK  111  A    between atoms: _276  and  _279
REMARK  112  A    between atoms: _279  and  _280
REMARK  113  A    between atoms: _285  and  _287
REMARK  114  A    between atoms: _287  and  _288
REMARK  115  A    between atoms: _287  and  _290
REMARK  116  A    between atoms: _290  and  _291
REMARK  117  A    between atoms: _294  and  _296
REMARK  118  A    between atoms: _296  and  _297
REMARK  119  A    between atoms: _296  and  _299
REMARK  120  A    between atoms: _299  and  _300
REMARK  121  A    between atoms: _303  and  _305
REMARK  122  A    between atoms: _305  and  _306
REMARK  123  A    between atoms: _305  and  _308
REMARK  124  A    between atoms: _308  and  _309
REMARK  125  A    between atoms: _314  and  _315
REMARK  126  A    between atoms: _317  and  _319
REMARK  127  A    between atoms: _319  and  _320
REMARK  128  A    between atoms: _319  and  _322
REMARK  129  A    between atoms: _322  and  _323
REMARK  130  A    between atoms: _326  and  _328
REMARK  131  A    between atoms: _328  and  _329
REMARK  132  A    between atoms: _328  and  _331
REMARK  133  A    between atoms: _331  and  _332
REMARK  134  A    between atoms: _332  and  _333
REMARK  135  A    between atoms: _335  and  _337
REMARK  136  A    between atoms: _337  and  _338
REMARK  137  A    between atoms: _337  and  _340
REMARK  138  A    between atoms: _340  and  _341
REMARK  139  A    between atoms: _344  and  _346
REMARK  140  A    between atoms: _346  and  _347
REMARK  141  A    between atoms: _350  and  _352
REMARK  142  A    between atoms: _352  and  _353
REMARK  143  A    between atoms: _352  and  _355
REMARK  144  A    between atoms: _355  and  _356
REMARK  145  A    between atoms: _358  and  _360
REMARK  146  A    between atoms: _360  and  _361
REMARK  147  A    between atoms: _360  and  _363
REMARK  148  A    between atoms: _363  and  _364
REMARK  149  A    between atoms: _367  and  _369
REMARK  150  A    between atoms: _369  and  _370
REMARK  151  A    between atoms: _369  and  _372
REMARK  152  A    between atoms: _372  and  _373
REMARK  153  A    between atoms: _373  and  _374
REMARK  154  A    between atoms: _376  and  _378
REMARK  155  A    between atoms: _378  and  _379
REMARK  156  A    between atoms: _381  and  _383
REMARK  157  A    between atoms: _383  and  _384
REMARK  158  A    between atoms: _383  and  _386
REMARK  159  A    between atoms: _389  and  _391
REMARK  160  A    between atoms: _391  and  _392
REMARK  161  A    between atoms: _391  and  _394
REMARK  162  A    between atoms: _394  and  _395
REMARK  163  A    between atoms: _398  and  _400
REMARK  164  A    between atoms: _400  and  _401
REMARK  165  A    between atoms: _400  and  _403
REMARK  166  A    between atoms: _403  and  _404
REMARK  167  A    between atoms: _407  and  _409
REMARK  168  A    between atoms: _409  and  _410
REMARK  169  A    between atoms: _409  and  _412
REMARK  170  A    between atoms: _412  and  _413
REMARK  171  A    between atoms: _415  and  _417
REMARK  172  A    between atoms: _417  and  _418
REMARK  173  A    between atoms: _417  and  _420
REMARK  174  A    between atoms: _420  and  _421
REMARK  175  A    between atoms: _421  and  _422
REMARK  176  A    between atoms: _425  and  _427
REMARK  177  A    between atoms: _427  and  _428
REMARK  178  A    between atoms: _430  and  _432
REMARK  179  A    between atoms: _432  and  _433
REMARK  180  A    between atoms: _432  and  _435
REMARK  181  A    between atoms: _435  and  _436
REMARK  182  A    between atoms: _436  and  _437
REMARK  183  A    between atoms: _442  and  _444
REMARK  184  A    between atoms: _444  and  _445
REMARK  185  A    between atoms: _447  and  _449
REMARK  186  A    between atoms: _449  and  _450
REMARK  187  A    between atoms: _449  and  _452
REMARK  188  A    between atoms: _452  and  _453
REMARK  189  A    between atoms: _459  and  _461
REMARK  190  A    between atoms: _461  and  _462
REMARK  191  A    between atoms: _461  and  _464
REMARK  192  A    between atoms: _464  and  _465
REMARK  193  A    between atoms: _465  and  _466
REMARK  194  A    between atoms: _468  and  _470
REMARK  195  A    between atoms: _470  and  _471
REMARK  196  A    between atoms: _470  and  _473
REMARK  197  A    between atoms: _473  and  _474
REMARK  198  A    between atoms: _477  and  _479
REMARK  199  A    between atoms: _479  and  _480
REMARK  200  A    between atoms: _479  and  _482
REMARK  201  A    between atoms: _482  and  _483
REMARK  202  A    between atoms: _483  and  _484
REMARK  203  A    between atoms: _484  and  _485
REMARK  204  A    between atoms: _494  and  _496
REMARK  205  A    between atoms: _496  and  _497
REMARK  206  A    between atoms: _496  and  _499
REMARK  207  A    between atoms: _499  and  _500
REMARK  208  A    between atoms: _506  and  _508
REMARK  209  A    between atoms: _508  and  _509
REMARK  210  A    between atoms: _508  and  _511
REMARK  211  A    between atoms: _511  and  _512
REMARK  212  A    between atoms: _515  and  _517
REMARK  213  A    between atoms: _517  and  _518
REMARK  214  A    between atoms: _517  and  _520
REMARK  215  A    between atoms: _520  and  _521
REMARK  216  A    between atoms: _524  and  _526
REMARK  217  A    between atoms: _526  and  _527
REMARK  218  A    between atoms: _526  and  _529
REMARK  219  A    between atoms: _529  and  _530
REMARK  220  A    between atoms: _536  and  _538
REMARK  221  A    between atoms: _538  and  _539
REMARK  222  A    between atoms: _538  and  _541
REMARK  223  A    between atoms: _541  and  _542
REMARK  224  A    between atoms: _542  and  _543
REMARK  225  A    between atoms: _545  and  _547
REMARK  226  A    between atoms: _547  and  _548
REMARK  227  A    between atoms: _547  and  _550
REMARK  228  A    between atoms: _550  and  _551
REMARK  229  A    between atoms: _551  and  _552
REMARK  230  A    between atoms: _556  and  _557
REMARK  231  A    between atoms: _562  and  _564
REMARK  232  A    between atoms: _564  and  _565
REMARK  233  A    between atoms: _564  and  _567
REMARK  234  A    between atoms: _567  and  _568
REMARK  235  A    between atoms: _568  and  _569
REMARK  236  A    between atoms: _569  and  _570
REMARK  237  A    between atoms: _570  and  _571
REMARK  238  A    between atoms: _575  and  _577
REMARK  239  A    between atoms: _577  and  _578
REMARK  240  A    between atoms: _577  and  _580
REMARK  241  A    between atoms: _580  and  _581
REMARK  242  A    between atoms: _587  and  _589
REMARK  243  A    between atoms: _589  and  _590
REMARK  244  A    between atoms: _589  and  _592
REMARK  245  A    between atoms: _592  and  _593
REMARK  246  A    between atoms: _596  and  _598
REMARK  247  A    between atoms: _598  and  _599
REMARK  248  A    between atoms: _598  and  _601
REMARK  249  A    between atoms: _601  and  _602
REMARK  250  A    between atoms: _605  and  _607
REMARK  251  A    between atoms: _607  and  _608
REMARK  252  A    between atoms: _607  and  _610
REMARK  253  A    between atoms: _613  and  _615
REMARK  254  A    between atoms: _615  and  _616
REMARK  255  A    between atoms: _615  and  _618
REMARK  256  A    between atoms: _618  and  _619
REMARK  257  A    between atoms: _624  and  _626
REMARK  258  A    between atoms: _626  and  _627
REMARK  259  A    between atoms: _626  and  _629
REMARK  260  A    between atoms: _629  and  _630
REMARK  261  A    between atoms: _633  and  _635
REMARK  262  A    between atoms: _635  and  _636
REMARK  263  A    between atoms: _635  and  _638
REMARK  264  A    between atoms: _638  and  _639
REMARK  265  A    between atoms: _642  and  _644
REMARK  266  A    between atoms: _644  and  _645
REMARK  267  A    between atoms: _644  and  _647
REMARK  268  A    between atoms: _647  and  _648
REMARK  269  A    between atoms: _651  and  _653
REMARK  270  A    between atoms: _653  and  _654
REMARK  271  A    between atoms: _653  and  _656
REMARK  272  A    between atoms: _656  and  _657
REMARK  273  A    between atoms: _662  and  _663
REMARK                            x       y       z     vdW  Elec       q    Type
REMARK                         _______ _______ _______ _____ _____    ______ ____
ROOT
ATOM      1  CA  MET A   5      10.778  -2.658  14.823  0.00  0.00    +0.149 C 
ENDROOT
BRANCH   1   3
ATOM      2  C   THR A   4      12.368  -4.370  15.522  0.00  0.00    +0.243 C 
ATOM      3  N   MET A   5      11.617  -3.315  15.818  0.00  0.00    -0.297 N 
ATOM      4  H   MET A   5      11.628  -2.946  16.790  0.00  0.00    +0.150 HD
ATOM      5  O   THR A   4      12.421  -4.857  14.394  0.00  0.00    -0.273 OA
BRANCH   2   6
ATOM      6  CA  THR A   4      13.177  -4.964  16.673  0.00  0.00    +0.176 C 
BRANCH   6   8
ATOM      7  C   TYR A   3      14.995  -3.367  16.524  0.00  0.00    +0.241 C 
ATOM      8  N   THR A   4      14.066  -3.969  17.253  0.00  0.00    -0.295 N 
ATOM      9  H   THR A   4      13.971  -3.725  18.260  0.00  0.00    +0.150 HD
ATOM     10  O   TYR A   3      15.201  -3.656  15.340  0.00  0.00    -0.273 OA
BRANCH   7  11
ATOM     11  CA  TYR A   3      15.781  -2.245  17.215  0.00  0.00    +0.153 C 
BRANCH  11  13
ATOM     12  C   ILE A   2      13.962  -0.740  17.700  0.00  0.00    +0.241 C 
ATOM     13  N   TYR A   3      14.941  -1.521  18.149  0.00  0.00    -0.297 N 
ATOM     14  H   TYR A   3      15.104  -1.612  19.172  0.00  0.00    +0.150 HD
ATOM     15  O   ILE A   2      13.709  -0.623  16.495  0.00  0.00    -0.273 OA
BRANCH  12  16
ATOM     16  CA  ILE A   2      13.132   0.009  18.750  0.00  0.00    +0.148 C 
BRANCH  16  18
ATOM     17  C   ILE A   1      12.038  -1.948  19.692  0.00  0.00    +0.238 C 
ATOM     18  N   ILE A   2      12.750  -0.839  19.871  0.00  0.00    -0.297 N 
ATOM     19  H   ILE A   2      13.041  -0.571  20.833  0.00  0.00    +0.150 HD
ATOM     20  O   ILE A   1      11.639  -2.313  18.580  0.00  0.00    -0.274 OA
BRANCH  17  21
ATOM     21  CA  ILE A   1      11.747  -2.781  20.945  0.00  0.00    +0.145 C 
BRANCH  21  22
ATOM     22  N   ILE A   1      12.908  -2.791  21.830  0.00  0.00    -0.238 NA
ATOM     23  H   ILE A   1      12.884  -2.216  22.696  0.00  0.00    +0.142 HD
ENDBRANCH  21  22
BRANCH  21  24
ATOM     24  CB  ILE A   1      10.497  -2.209  21.673  0.00  0.00    +0.025 C 
ATOM     25  CG2 ILE A   1       9.289  -2.135  20.723  0.00  0.00    +0.002 C 
BRANCH  24  26
ATOM     26  CG1 ILE A   1      10.147  -3.096  22.862  0.00  0.00    +0.002 C 
ATOM     27  CD1 ILE A   1       8.684  -3.026  23.242  0.00  0.00    +0.000 C 
ENDBRANCH  24  26
ENDBRANCH  21  24
ENDBRANCH  17  21
ENDBRANCH  16  18
BRANCH  16  28
ATOM     28  CB  ILE A   2      13.915   1.264  19.236  0.00  0.00    +0.027 C 
ATOM     29  CG2 ILE A   2      14.650   1.914  18.068  0.00  0.00    +0.002 C 
BRANCH  28  30
ATOM     30  CG1 ILE A   2      12.943   2.256  19.883  0.00  0.00    +0.002 C 
ATOM     31  CD1 ILE A   2      13.598   3.498  20.464  0.00  0.00    +0.000 C 
ENDBRANCH  28  30
ENDBRANCH  16  28
ENDBRANCH  12  16
ENDBRANCH  11  13
BRANCH  11  32
ATOM     32  CB  TYR A   3      17.011  -2.787  17.948  0.00  0.00    +0.055 C 
BRANCH  32  33
ATOM     33  CG  TYR A   3      17.810  -1.679  18.602  0.00  0.00    -0.020 A 
ATOM     34  CD2 TYR A   3      18.345  -1.828  19.878  0.00  0.00    -0.001 A 
ATOM     35  CE2 TYR A   3      19.040  -0.797  20.482  0.00  0.00    +0.036 A 
ATOM     36  CZ  TYR A   3      19.204   0.401  19.811  0.00  0.00    +0.134 A 
ATOM     37  CE1 TYR A   3      18.685   0.569  18.547  0.00  0.00    +0.036 A 
ATOM     38  CD1 TYR A   3      17.997  -0.464  17.952  0.00  0.00    -0.001 A 
BRANCH  36  39
ATOM     39  OH  TYR A   3      19.874   1.447  20.406  0.00  0.00    -0.506 OA
ATOM     40  HH  TYR A   3      20.184   1.170  21.305  0.00  0.00    +0.292 HD
ENDBRANCH  36  39
ENDBRANCH  32  33
ENDBRANCH  11  32
ENDBRANCH   7  11
ENDBRANCH   6   8
BRANCH   6  41
ATOM     41  CB  THR A   4      12.210  -5.508  17.739  0.00  0.00    +0.137 C 
ATOM     42  CG2 THR A   4      11.330  -6.614  17.161  0.00  0.00    +0.034 C 
BRANCH  41  43
ATOM     43  OG1 THR A   4      12.972  -6.051  18.824  0.00  0.00    -0.382 OA
ATOM     44  HG1 THR A   4      13.538  -5.340  19.217  0.00  0.00    +0.210 HD
ENDBRANCH  41  43
ENDBRANCH   6  41
ENDBRANCH   2   6
ENDBRANCH   1   3
BRANCH   1  45
ATOM     45  C   MET A   5      11.627  -2.082  13.698  0.00  0.00    +0.241 C 
ATOM     46  N   LEU A   6      12.844  -1.661  14.034  0.00  0.00    -0.297 N 
ATOM     47  H   LEU A   6      13.139  -1.725  15.029  0.00  0.00    +0.150 HD
ATOM     48  O   MET A   5      11.189  -2.027  12.552  0.00  0.00    -0.273 OA
BRANCH  46  49
ATOM     49  CA  LEU A   6      13.775  -1.115  13.062  0.00  0.00    +0.149 C 
BRANCH  49  50
ATOM     50  C   LEU A   6      14.130  -2.112  11.957  0.00  0.00    +0.241 C 
ATOM     51  N   ALA A   7      14.300  -3.386  12.321  0.00  0.00    -0.297 N 
ATOM     52  H   ALA A   7      14.200  -3.647  13.323  0.00  0.00    +0.150 HD
ATOM     53  O   LEU A   6      14.268  -1.720  10.799  0.00  0.00    -0.273 OA
BRANCH  51  54
ATOM     54  CA  ALA A   7      14.622  -4.417  11.345  0.00  0.00    +0.149 C 
ATOM     55  CB  ALA A   7      14.764  -5.779  12.030  0.00  0.00    +0.031 C 
BRANCH  54  56
ATOM     56  C   ALA A   7      13.539  -4.482  10.277  0.00  0.00    +0.241 C 
ATOM     57  N   SER A   8      12.297  -4.202  10.670  0.00  0.00    -0.295 N 
ATOM     58  H   SER A   8      12.124  -3.967  11.668  0.00  0.00    +0.150 HD
ATOM     59  O   ALA A   7      13.826  -4.779   9.123  0.00  0.00    -0.273 OA
BRANCH  57  60
ATOM     60  CA  SER A   8      11.173  -4.215   9.742  0.00  0.00    +0.178 C 
BRANCH  60  61
ATOM     61  C   SER A   8      11.396  -3.264   8.584  0.00  0.00    +0.243 C 
ATOM     62  N   LEU A   9      12.185  -2.223   8.832  0.00  0.00    -0.297 N 
ATOM     63  H   LEU A   9      12.669  -2.165   9.751  0.00  0.00    +0.150 HD
ATOM     64  O   SER A   8      10.859  -3.465   7.493  0.00  0.00    -0.273 OA
BRANCH  62  65
ATOM     65  CA  LEU A   9      12.391  -1.165   7.860  0.00  0.00    +0.149 C 
BRANCH  65  66
ATOM     66  C   LEU A   9      13.673  -1.410   7.065  0.00  0.00    +0.241 C 
ATOM     67  N   MET A  10      14.404  -2.457   7.431  0.00  0.00    -0.298 N 
ATOM     68  H   MET A  10      14.030  -3.111   8.148  0.00  0.00    +0.150 HD
ATOM     69  O   LEU A   9      14.000  -0.653   6.145  0.00  0.00    -0.273 OA
BRANCH  67  70
ATOM     70  CA  MET A  10      15.722  -2.712   6.850  0.00  0.00    +0.138 C 
BRANCH  70  71
ATOM     71  C   MET A  10      15.741  -3.946   5.935  0.00  0.00    +0.227 C 
ATOM     72  O   MET A  10      15.009  -4.912   6.149  0.00  0.00    -0.286 OA
ENDBRANCH  70  71
BRANCH  70  73
ATOM     73  CB  MET A  10      16.763  -2.914   7.960  0.00  0.00    +0.039 C 
BRANCH  73  74
ATOM     74  CG  MET A  10      17.103  -1.670   8.791  0.00  0.00    +0.060 C 
BRANCH  74  75
ATOM     75  SD  MET A  10      18.101  -2.104  10.266  0.00  0.00    -0.139 S 
ATOM     76  CE  MET A  10      19.137  -0.622  10.398  0.00  0.00    +0.069 C 
ENDBRANCH  74  75
ENDBRANCH  73  74
ENDBRANCH  70  73
ENDBRANCH  67  70
ENDBRANCH  65  66
BRANCH  65  77
ATOM     77  CB  LEU A   9      12.480   0.182   8.576  0.00  0.00    +0.029 C 
BRANCH  77  78
ATOM     78  CG  LEU A   9      11.202   0.800   9.140  0.00  0.00    +0.002 C 
ATOM     79  CD2 LEU A   9      11.513   1.511  10.441  0.00  0.00    +0.000 C 
ATOM     80  CD1 LEU A   9      10.166  -0.262   9.349  0.00  0.00    +0.000 C 
ENDBRANCH  77  78
ENDBRANCH  65  77
ENDBRANCH  62  65
ENDBRANCH  60  61
BRANCH  60  81
ATOM     81  CB  SER A   8       9.883  -3.819  10.455  0.00  0.00    +0.166 C 
BRANCH  81  82
ATOM     82  OG  SER A   8       9.519  -4.793  11.410  0.00  0.00    -0.380 OA
ATOM     83  H   SER A   8       8.681  -4.516  11.859  0.00  0.00    +0.211 HD
ENDBRANCH  81  82
ENDBRANCH  60  81
ENDBRANCH  57  60
ENDBRANCH  54  56
ENDBRANCH  51  54
ENDBRANCH  49  50
BRANCH  49  84
ATOM     84  CB  LEU A   6      15.068  -0.668  13.754  0.00  0.00    +0.029 C 
BRANCH  84  85
ATOM     85  CG  LEU A   6      16.085   0.081  12.877  0.00  0.00    +0.002 C 
ATOM     86  CD2 LEU A   6      17.217   0.629  13.766  0.00  0.00    +0.000 C 
ATOM     87  CD1 LEU A   6      15.393   1.224  12.121  0.00  0.00    +0.000 C 
ENDBRANCH  84  85
ENDBRANCH  49  84
ENDBRANCH  46  49
ENDBRANCH   1  45
BRANCH   1  88
ATOM     88  CB  MET A   5       9.962  -1.540  15.476  0.00  0.00    +0.041 C 
BRANCH  88  89
ATOM     89  CG  MET A   5       9.043  -2.011  16.594  0.00  0.00    +0.060 C 
BRANCH  89  90
ATOM     90  SD  MET A   5       7.718  -3.086  16.015  0.00  0.00    -0.139 S 
ATOM     91  CE  MET A   5       6.530  -1.875  15.390  0.00  0.00    +0.069 C 
ENDBRANCH  89  90
ENDBRANCH  88  89
ENDBRANCH   1  88
TORSDOF 41
REMARK  Name = ../refined-set-2016/2p4y/2p4y_pocket.pdb
REMARK  273 active torsions:
REMARK  status: ('A' for Active; 'I' for Inactive)
REMARK    1  A    between atoms: _1  and  _3
REMARK    2  A    between atoms: _3  and  _4
REMARK    3  A    between atoms: _3  and  _6
REMARK    4  A    between atoms: _6  and  _7
REMARK    5  A    between atoms: _12  and  _13
REMARK    6  A    between atoms: _15  and  _17
REMARK    7  A    between atoms: _17  and  _18
REMARK    8  A    between atoms: _17  and  _20
REMARK    9  A    between atoms: _20  and  _21
REMARK   10  A    between atoms: _23  and  _25
REMARK   11  A    between atoms: _25  and  _26
REMARK   12  A    between atoms: _25  and  _28
REMARK   13  A    between atoms: _28  and  _29
REMARK   14  A    between atoms: _36  and  _37
REMARK   15  A    between atoms: _42  and  _44
REMARK   16  A    between atoms: _44  and  _45
REMARK   17  A    between atoms: _44  and  _47
REMARK   18  A    between atoms: _47  and  _48
REMARK   19  A    between atoms: _51  and  _53
REMARK   20  A    between atoms: _53  and  _54
REMARK   21  A    between atoms: _53  and  _56
REMARK   22  A    between atoms: _56  and  _57
REMARK   23  A    between atoms: _60  and  _62
REMARK   24  A    between atoms: _62  and  _63
REMARK   25  A    between atoms: _62  and  _65
REMARK   26  A    between atoms: _65  and  _66
REMARK   27  A    between atoms: _69  and  _71
REMARK   28  A    between atoms: _71  and  _72
REMARK   29  A    between atoms: _71  and  _74
REMARK   30  A    between atoms: _74  and  _75
REMARK   31  A    between atoms: _75  and  _76
REMARK   32  A    between atoms: _76  and  _77
REMARK   33  A    between atoms: _86  and  _88
REMARK   34  A    between atoms: _88  and  _89
REMARK   35  A    between atoms: _88  and  _91
REMARK   36  A    between atoms: _91  and  _92
REMARK   37  A    between atoms: _95  and  _97
REMARK   38  A    between atoms: _97  and  _98
REMARK   39  A    between atoms: _97  and  _100
REMARK   40  A    between atoms: _100  and  _101
REMARK   41  A    between atoms: _107  and  _109
REMARK   42  A    between atoms: _109  and  _110
REMARK   43  A    between atoms: _109  and  _112
REMARK   44  A    between atoms: _112  and  _113
REMARK   45  A    between atoms: _113  and  _114
REMARK   46  A    between atoms: _119  and  _121
REMARK   47  A    between atoms: _121  and  _122
REMARK   48  A    between atoms: _124  and  _126
REMARK   49  A    between atoms: _126  and  _127
REMARK   50  A    between atoms: _126  and  _129
REMARK   51  A    between atoms: _131  and  _133
REMARK   52  A    between atoms: _133  and  _134
REMARK   53  A    between atoms: _133  and  _136
REMARK   54  A    between atoms: _136  and  _137
REMARK   55  A    between atoms: _137  and  _138
REMARK   56  A    between atoms: _143  and  _145
REMARK   57  A    between atoms: _145  and  _146
REMARK   58  A    between atoms: _145  and  _148
REMARK   59  A    between atoms: _148  and  _149
REMARK   60  A    between atoms: _155  and  _157
REMARK   61  A    between atoms: _157  and  _158
REMARK   62  A    between atoms: _157  and  _160
REMARK   63  A    between atoms: _160  and  _161
REMARK   64  A    between atoms: _161  and  _162
REMARK   65  A    between atoms: _162  and  _163
REMARK   66  A    between atoms: _172  and  _174
REMARK   67  A    between atoms: _174  and  _175
REMARK   68  A    between atoms: _174  and  _177
REMARK   69  A    between atoms: _177  and  _178
REMARK   70  A    between atoms: _180  and  _182
REMARK   71  A    between atoms: _182  and  _183
REMARK   72  A    between atoms: _182  and  _185
REMARK   73  A    between atoms: _188  and  _190
REMARK   74  A    between atoms: _190  and  _191
REMARK   75  A    between atoms: _190  and  _193
REMARK   76  A    between atoms: _193  and  _194
REMARK   77  A    between atoms: _194  and  _195
REMARK   78  A    between atoms: _198  and  _200
REMARK   79  A    between atoms: _200  and  _201
REMARK   80  A    between atoms: _204  and  _206
REMARK   81  A    between atoms: _206  and  _207
REMARK   82  A    between atoms: _206  and  _209
REMARK   83  A    between atoms: _212  and  _214
REMARK   84  A    between atoms: _214  and  _215
REMARK   85  A    between atoms: _214  and  _217
REMARK   86  A    between atoms: _217  and  _218
REMARK   87  A    between atoms: _218  and  _219
REMARK   88  A    between atoms: _224  and  _226
REMARK   89  A    between atoms: _226  and  _227
REMARK   90  A    between atoms: _226  and  _229
REMARK   91  A    between atoms: _229  and  _230
REMARK   92  A    between atoms: _230  and  _231
REMARK   93  A    between atoms: _234  and  _236
REMARK   94  A    between atoms: _236  and  _237
REMARK   95  A    between atoms: _236  and  _239
REMARK   96  A    between atoms: _239  and  _240
REMARK   97  A    between atoms: _243  and  _245
REMARK   98  A    between atoms: _245  and  _246
REMARK   99  A    between atoms: _245  and  _248
REMARK  100  A    between atoms: _248  and  _249
REMARK  101  A    between atoms: _252  and  _254
REMARK  102  A    between atoms: _254  and  _255
REMARK  103  A    between atoms: _254  and  _257
REMARK  104  A    between atoms: _257  and  _258
REMARK  105  A    between atoms: _263  and  _264
REMARK  106  A    between atoms: _266  and  _268
REMARK  107  A    between atoms: _268  and  _269
REMARK  108  A    between atoms: _268  and  _271
REMARK  109  A    between atoms: _274  and  _276
REMARK  110  A    between atoms: _276  and  _277
REMARK  111  A    between atoms: _276  and  _279
REMARK  112  A    between atoms: _279  and  _280
REMARK  113  A    between atoms: _285  and  _287
REMARK  114  A    between atoms: _287  and  _288
REMARK  115  A    between atoms: _287  and  _290
REMARK  116  A    between atoms: _290  and  _291
REMARK  117  A    between atoms: _294  and  _296
REMARK  118  A    between atoms: _296  and  _297
REMARK  119  A    between atoms: _296  and  _299
REMARK  120  A    between atoms: _299  and  _300
REMARK  121  A    between atoms: _303  and  _305
REMARK  122  A    between atoms: _305  and  _306
REMARK  123  A    between atoms: _305  and  _308
REMARK  124  A    between atoms: _308  and  _309
REMARK  125  A    between atoms: _314  and  _315
REMARK  126  A    between atoms: _317  and  _319
REMARK  127  A    between atoms: _319  and  _320
REMARK  128  A    between atoms: _319  and  _322
REMARK  129  A    between atoms: _322  and  _323
REMARK  130  A    between atoms: _326  and  _328
REMARK  131  A    between atoms: _328  and  _329
REMARK  132  A    between atoms: _328  and  _331
REMARK  133  A    between atoms: _331  and  _332
REMARK  134  A    between atoms: _332  and  _333
REMARK  135  A    between atoms: _335  and  _337
REMARK  136  A    between atoms: _337  and  _338
REMARK  137  A    between atoms: _337  and  _340
REMARK  138  A    between atoms: _340  and  _341
REMARK  139  A    between atoms: _344  and  _346
REMARK  140  A    between atoms: _346  and  _347
REMARK  141  A    between atoms: _350  and  _352
REMARK  142  A    between atoms: _352  and  _353
REMARK  143  A    between atoms: _352  and  _355
REMARK  144  A    between atoms: _355  and  _356
REMARK  145  A    between atoms: _358  and  _360
REMARK  146  A    between atoms: _360  and  _361
REMARK  147  A    between atoms: _360  and  _363
REMARK  148  A    between atoms: _363  and  _364
REMARK  149  A    between atoms: _367  and  _369
REMARK  150  A    between atoms: _369  and  _370
REMARK  151  A    between atoms: _369  and  _372
REMARK  152  A    between atoms: _372  and  _373
REMARK  153  A    between atoms: _373  and  _374
REMARK  154  A    between atoms: _376  and  _378
REMARK  155  A    between atoms: _378  and  _379
REMARK  156  A    between atoms: _381  and  _383
REMARK  157  A    between atoms: _383  and  _384
REMARK  158  A    between atoms: _383  and  _386
REMARK  159  A    between atoms: _389  and  _391
REMARK  160  A    between atoms: _391  and  _392
REMARK  161  A    between atoms: _391  and  _394
REMARK  162  A    between atoms: _394  and  _395
REMARK  163  A    between atoms: _398  and  _400
REMARK  164  A    between atoms: _400  and  _401
REMARK  165  A    between atoms: _400  and  _403
REMARK  166  A    between atoms: _403  and  _404
REMARK  167  A    between atoms: _407  and  _409
REMARK  168  A    between atoms: _409  and  _410
REMARK  169  A    between atoms: _409  and  _412
REMARK  170  A    between atoms: _412  and  _413
REMARK  171  A    between atoms: _415  and  _417
REMARK  172  A    between atoms: _417  and  _418
REMARK  173  A    between atoms: _417  and  _420
REMARK  174  A    between atoms: _420  and  _421
REMARK  175  A    between atoms: _421  and  _422
REMARK  176  A    between atoms: _425  and  _427
REMARK  177  A    between atoms: _427  and  _428
REMARK  178  A    between atoms: _430  and  _432
REMARK  179  A    between atoms: _432  and  _433
REMARK  180  A    between atoms: _432  and  _435
REMARK  181  A    between atoms: _435  and  _436
REMARK  182  A    between atoms: _436  and  _437
REMARK  183  A    between atoms: _442  and  _444
REMARK  184  A    between atoms: _444  and  _445
REMARK  185  A    between atoms: _447  and  _449
REMARK  186  A    between atoms: _449  and  _450
REMARK  187  A    between atoms: _449  and  _452
REMARK  188  A    between atoms: _452  and  _453
REMARK  189  A    between atoms: _459  and  _461
REMARK  190  A    between atoms: _461  and  _462
REMARK  191  A    between atoms: _461  and  _464
REMARK  192  A    between atoms: _464  and  _465
REMARK  193  A    between atoms: _465  and  _466
REMARK  194  A    between atoms: _468  and  _470
REMARK  195  A    between atoms: _470  and  _471
REMARK  196  A    between atoms: _470  and  _473
REMARK  197  A    between atoms: _473  and  _474
REMARK  198  A    between atoms: _477  and  _479
REMARK  199  A    between atoms: _479  and  _480
REMARK  200  A    between atoms: _479  and  _482
REMARK  201  A    between atoms: _482  and  _483
REMARK  202  A    between atoms: _483  and  _484
REMARK  203  A    between atoms: _484  and  _485
REMARK  204  A    between atoms: _494  and  _496
REMARK  205  A    between atoms: _496  and  _497
REMARK  206  A    between atoms: _496  and  _499
REMARK  207  A    between atoms: _499  and  _500
REMARK  208  A    between atoms: _506  and  _508
REMARK  209  A    between atoms: _508  and  _509
REMARK  210  A    between atoms: _508  and  _511
REMARK  211  A    between atoms: _511  and  _512
REMARK  212  A    between atoms: _515  and  _517
REMARK  213  A    between atoms: _517  and  _518
REMARK  214  A    between atoms: _517  and  _520
REMARK  215  A    between atoms: _520  and  _521
REMARK  216  A    between atoms: _524  and  _526
REMARK  217  A    between atoms: _526  and  _527
REMARK  218  A    between atoms: _526  and  _529
REMARK  219  A    between atoms: _529  and  _530
REMARK  220  A    between atoms: _536  and  _538
REMARK  221  A    between atoms: _538  and  _539
REMARK  222  A    between atoms: _538  and  _541
REMARK  223  A    between atoms: _541  and  _542
REMARK  224  A    between atoms: _542  and  _543
REMARK  225  A    between atoms: _545  and  _547
REMARK  226  A    between atoms: _547  and  _548
REMARK  227  A    between atoms: _547  and  _550
REMARK  228  A    between atoms: _550  and  _551
REMARK  229  A    between atoms: _551  and  _552
REMARK  230  A    between atoms: _556  and  _557
REMARK  231  A    between atoms: _562  and  _564
REMARK  232  A    between atoms: _564  and  _565
REMARK  233  A    between atoms: _564  and  _567
REMARK  234  A    between atoms: _567  and  _568
REMARK  235  A    between atoms: _568  and  _569
REMARK  236  A    between atoms: _569  and  _570
REMARK  237  A    between atoms: _570  and  _571
REMARK  238  A    between atoms: _575  and  _577
REMARK  239  A    between atoms: _577  and  _578
REMARK  240  A    between atoms: _577  and  _580
REMARK  241  A    between atoms: _580  and  _581
REMARK  242  A    between atoms: _587  and  _589
REMARK  243  A    between atoms: _589  and  _590
REMARK  244  A    between atoms: _589  and  _592
REMARK  245  A    between atoms: _592  and  _593
REMARK  246  A    between atoms: _596  and  _598
REMARK  247  A    between atoms: _598  and  _599
REMARK  248  A    between atoms: _598  and  _601
REMARK  249  A    between atoms: _601  and  _602
REMARK  250  A    between atoms: _605  and  _607
REMARK  251  A    between atoms: _607  and  _608
REMARK  252  A    between atoms: _607  and  _610
REMARK  253  A    between atoms: _613  and  _615
REMARK  254  A    between atoms: _615  and  _616
REMARK  255  A    between atoms: _615  and  _618
REMARK  256  A    between atoms: _618  and  _619
REMARK  257  A    between atoms: _624  and  _626
REMARK  258  A    between atoms: _626  and  _627
REMARK  259  A    between atoms: _626  and  _629
REMARK  260  A    between atoms: _629  and  _630
REMARK  261  A    between atoms: _633  and  _635
REMARK  262  A    between atoms: _635  and  _636
REMARK  263  A    between atoms: _635  and  _638
REMARK  264  A    between atoms: _638  and  _639
REMARK  265  A    between atoms: _642  and  _644
REMARK  266  A    between atoms: _644  and  _645
REMARK  267  A    between atoms: _644  and  _647
REMARK  268  A    between atoms: _647  and  _648
REMARK  269  A    between atoms: _651  and  _653
REMARK  270  A    between atoms: _653  and  _654
REMARK  271  A    between atoms: _653  and  _656
REMARK  272  A    between atoms: _656  and  _657
REMARK  273  A    between atoms: _662  and  _663
REMARK                            x       y       z     vdW  Elec       q    Type
REMARK                         _______ _______ _______ _____ _____    ______ ____
ROOT
ATOM      1  CA  GLN A   8       9.454   7.964   1.361  0.00  0.00    +0.149 C 
ENDROOT
BRANCH   1   3
ATOM      2  C   GLY A   7       9.232   5.918   2.657  0.00  0.00    +0.243 C 
ATOM      3  N   GLN A   8       9.300   7.244   2.621  0.00  0.00    -0.297 N 
ATOM      4  H   GLN A   8       9.242   7.781   3.510  0.00  0.00    +0.150 HD
ATOM      5  O   GLY A   7       9.389   5.215   1.656  0.00  0.00    -0.273 OA
BRANCH   2   6
ATOM      6  CA  GLY A   7       8.958   5.281   4.011  0.00  0.00    +0.176 C 
BRANCH   6   9
ATOM      7  C   GLU A   6       7.809   6.671   5.616  0.00  0.00    +0.241 C 
ATOM      8  O   GLU A   6       6.703   6.391   5.134  0.00  0.00    -0.273 OA
ATOM      9  N   GLY A   7       8.956   6.208   5.125  0.00  0.00    -0.295 N 
ATOM     10  H   GLY A   7       9.858   6.514   5.544  0.00  0.00    +0.150 HD
BRANCH   7  11
ATOM     11  CA  GLU A   6       7.923   7.577   6.837  0.00  0.00    +0.149 C 
BRANCH  11  13
ATOM     12  C   SER A   5       9.739   8.981   5.969  0.00  0.00    +0.243 C 
ATOM     13  N   GLU A   6       9.235   8.210   6.927  0.00  0.00    -0.297 N 
ATOM     14  H   GLU A   6       9.804   8.050   7.783  0.00  0.00    +0.150 HD
ATOM     15  O   SER A   5       9.162   9.208   4.898  0.00  0.00    -0.273 OA
BRANCH  12  16
ATOM     16  CA  SER A   5      11.101   9.588   6.265  0.00  0.00    +0.178 C 
BRANCH  16  18
ATOM     17  C   ILE A   4      12.405   7.592   5.734  0.00  0.00    +0.241 C 
ATOM     18  N   SER A   5      12.108   8.579   6.573  0.00  0.00    -0.295 N 
ATOM     19  H   SER A   5      12.612   8.634   7.481  0.00  0.00    +0.150 HD
ATOM     20  O   ILE A   4      11.811   7.401   4.681  0.00  0.00    -0.273 OA
BRANCH  17  21
ATOM     21  CA  ILE A   4      13.537   6.680   6.154  0.00  0.00    +0.149 C 
BRANCH  21  24
ATOM     22  C   LEU A   3      13.702   4.298   5.800  0.00  0.00    +0.241 C 
ATOM     23  O   LEU A   3      13.874   4.101   7.001  0.00  0.00    -0.273 OA
ATOM     24  N   ILE A   4      13.588   5.516   5.288  0.00  0.00    -0.297 N 
ATOM     25  H   ILE A   4      13.535   5.638   4.257  0.00  0.00    +0.150 HD
BRANCH  22  26
ATOM     26  CA  LEU A   3      13.607   3.120   4.825  0.00  0.00    +0.149 C 
BRANCH  26  28
ATOM     27  C   VAL A   2      15.879   2.296   5.013  0.00  0.00    +0.241 C 
ATOM     28  N   LEU A   3      14.579   2.115   5.219  0.00  0.00    -0.297 N 
ATOM     29  H   LEU A   3      14.251   1.237   5.671  0.00  0.00    +0.150 HD
ATOM     30  O   VAL A   2      16.323   3.293   4.440  0.00  0.00    -0.273 OA
BRANCH  27  31
ATOM     31  CA  VAL A   2      16.816   1.186   5.511  0.00  0.00    +0.148 C 
BRANCH  31  34
ATOM     32  C   GLY A   1      18.426  -0.182   4.297  0.00  0.00    +0.240 C 
ATOM     33  O   GLY A   1      17.920  -1.237   4.669  0.00  0.00    -0.274 OA
ATOM     34  N   VAL A   2      17.916   1.014   4.579  0.00  0.00    -0.297 N 
ATOM     35  H   VAL A   2      18.319   1.854   4.116  0.00  0.00    +0.150 HD
BRANCH  32  36
ATOM     36  CA  GLY A   1      19.690  -0.191   3.469  0.00  0.00    +0.169 C 
BRANCH  36  37
ATOM     37  N   GLY A   1      20.027  -1.512   2.975  0.00  0.00    -0.236 NA
ATOM     38  H   GLY A   1      19.459  -2.338   3.251  0.00  0.00    +0.142 HD
ENDBRANCH  36  37
ENDBRANCH  32  36
ENDBRANCH  31  34
BRANCH  31  39
ATOM     39  CB  VAL A   2      17.366   1.529   6.940  0.00  0.00    +0.027 C 
ATOM     40  CG2 VAL A   2      16.245   1.582   7.938  0.00  0.00    +0.002 C 
ATOM     41  CG1 VAL A   2      18.123   2.858   6.919  0.00  0.00    +0.002 C 
ENDBRANCH  31  39
ENDBRANCH  27  31
ENDBRANCH  26  28
BRANCH  26  42
ATOM     42  CB  LEU A   3      12.192   2.535   4.877  0.00  0.00    +0.029 C 
BRANCH  42  43
ATOM     43  CG  LEU A   3      11.735   1.539   3.807  0.00  0.00    +0.002 C 
ATOM     44  CD2 LEU A   3      10.319   1.084   4.140  0.00  0.00    +0.000 C 
ATOM     45  CD1 LEU A   3      11.758   2.208   2.423  0.00  0.00    +0.000 C 
ENDBRANCH  42  43
ENDBRANCH  26  42
ENDBRANCH  22  26
ENDBRANCH  21  24
BRANCH  21  46
ATOM     46  CB  ILE A   4      14.851   7.489   6.112  0.00  0.00    +0.027 C 
ATOM     47  CG2 ILE A   4      16.016   6.625   6.539  0.00  0.00    +0.002 C 
BRANCH  46  48
ATOM     48  CG1 ILE A   4      15.097   8.026   4.705  0.00  0.00    +0.002 C 
ATOM     49  CD1 ILE A   4      16.191   9.081   4.662  0.00  0.00    +0.000 C 
ENDBRANCH  46  48
ENDBRANCH  21  46
ENDBRANCH  17  21
ENDBRANCH  16  18
BRANCH  16  50
ATOM     50  CB  SER A   5      11.555  10.435   5.077  0.00  0.00    +0.166 C 
BRANCH  50  51
ATOM     51  OG  SER A   5      10.544  11.360   4.722  0.00  0.00    -0.380 OA
ATOM     52  H   SER A   5       9.721  10.869   4.475  0.00  0.00    +0.211 HD
ENDBRANCH  50  51
ENDBRANCH  16  50
ENDBRANCH  12  16
ENDBRANCH  11  13
BRANCH  11  53
ATOM     53  CB  GLU A   6       6.816   8.640   6.814  0.00  0.00    +0.041 C 
BRANCH  53  54
ATOM     54  CG  GLU A   6       6.788   9.542   8.049  0.00  0.00    +0.116 C 
BRANCH  54  55
ATOM     55  CD  GLU A   6       5.374   9.900   8.502  0.00  0.00    +0.365 C 
ATOM     56  OE2 GLU A   6       5.199  10.215   9.701  0.00  0.00    -0.246 OA
ATOM     57  OE1 GLU A   6       4.439   9.867   7.667  0.00  0.00    -0.246 OA
ENDBRANCH  54  55
ENDBRANCH  53  54
ENDBRANCH  11  53
ENDBRANCH   7  11
ENDBRANCH   6   9
ENDBRANCH   2   6
ENDBRANCH   1   3
BRANCH   1  58
ATOM     58  C   GLN A   8      10.902   7.983   0.861  0.00  0.00    +0.241 C 
ATOM     59  N   GLY A   9      11.837   7.592   1.720  0.00  0.00    -0.295 N 
ATOM     60  H   GLY A   9      11.576   7.358   2.699  0.00  0.00    +0.150 HD
ATOM     61  O   GLN A   8      11.170   8.354  -0.282  0.00  0.00    -0.273 OA
BRANCH  59  62
ATOM     62  CA  GLY A   9      13.218   7.490   1.298  0.00  0.00    +0.176 C 
BRANCH  62  63
ATOM     63  C   GLY A   9      13.843   6.167   1.701  0.00  0.00    +0.243 C 
ATOM     64  O   GLY A   9      13.252   5.382   2.450  0.00  0.00    -0.273 OA
ATOM     65  N   PHE A  10      15.044   5.925   1.195  0.00  0.00    -0.297 N 
ATOM     66  H   PHE A  10      15.469   6.631   0.560  0.00  0.00    +0.150 HD
BRANCH  65  67
ATOM     67  CA  PHE A  10      15.790   4.718   1.490  0.00  0.00    +0.153 C 
BRANCH  67  68
ATOM     68  C   PHE A  10      17.262   5.098   1.522  0.00  0.00    +0.241 C 
ATOM     69  N   MET A  11      17.894   4.986   2.683  0.00  0.00    -0.297 N 
ATOM     70  H   MET A  11      17.378   4.653   3.523  0.00  0.00    +0.150 HD
ATOM     71  O   PHE A  10      17.821   5.491   0.505  0.00  0.00    -0.273 OA
BRANCH  69  72
ATOM     72  CA  MET A  11      19.307   5.327   2.788  0.00  0.00    +0.149 C 
BRANCH  72  73
ATOM     73  C   MET A  11      20.149   4.061   2.869  0.00  0.00    +0.241 C 
ATOM     74  O   MET A  11      19.906   3.218   3.724  0.00  0.00    -0.273 OA
ATOM     75  N   THR A  12      21.144   3.942   1.990  0.00  0.00    -0.295 N 
ATOM     76  H   THR A  12      21.393   4.756   1.392  0.00  0.00    +0.150 HD
BRANCH  75  77
ATOM     77  CA  THR A  12      21.893   2.697   1.847  0.00  0.00    +0.176 C 
BRANCH  77  78
ATOM     78  C   THR A  12      22.814   2.425   3.038  0.00  0.00    +0.243 C 
ATOM     79  O   THR A  12      23.344   3.347   3.673  0.00  0.00    -0.273 OA
ATOM     80  N   ARG A  13      22.998   1.142   3.323  0.00  0.00    -0.298 N 
ATOM     81  H   ARG A  13      22.494   0.432   2.754  0.00  0.00    +0.150 HD
BRANCH  80  82
ATOM     82  CA  ARG A  13      23.870   0.680   4.392  0.00  0.00    +0.137 C 
BRANCH  82  83
ATOM     83  C   ARG A  13      25.293   1.192   4.194  0.00  0.00    +0.227 C 
ATOM     84  O   ARG A  13      25.934   1.644   5.147  0.00  0.00    -0.286 OA
ENDBRANCH  82  83
BRANCH  82  85
ATOM     85  CB  ARG A  13      23.860  -0.846   4.410  0.00  0.00    +0.031 C 
BRANCH  85  86
ATOM     86  CG  ARG A  13      24.741  -1.505   5.457  0.00  0.00    +0.045 C 
BRANCH  86  87
ATOM     87  CD  ARG A  13      24.409  -2.985   5.511  0.00  0.00    +0.174 C 
BRANCH  87  88
ATOM     88  NE  ARG A  13      25.126  -3.692   6.560  0.00  0.00    -0.265 N 
ATOM     89  HE  ARG A  13      25.818  -3.162   7.127  0.00  0.00    +0.259 HD
ATOM     90  CZ  ARG A  13      24.944  -4.980   6.832  0.00  0.00    +0.342 C 
ATOM     91  NH2 ARG A  13      25.637  -5.569   7.799  0.00  0.00    -0.292 N 
ATOM     92 HH21 ARG A  13      26.329  -5.022   8.350  0.00  0.00    +0.255 HD
ATOM     93 HH22 ARG A  13      25.488  -6.577   8.005  0.00  0.00    +0.255 HD
ATOM     94  NH1 ARG A  13      24.065  -5.680   6.128  0.00  0.00    -0.292 N 
ATOM     95 HH11 ARG A  13      23.917  -6.688   6.335  0.00  0.00    +0.255 HD
ATOM     96 HH12 ARG A  13      23.523  -5.221   5.368  0.00  0.00    +0.255 HD
ENDBRANCH  87  88
ENDBRANCH  86  87
ENDBRANCH  85  86
ENDBRANCH  82  85
ENDBRANCH  80  82
ENDBRANCH  77  78
BRANCH  77  97
ATOM     97  CB  THR A  12      22.756   2.685   0.551  0.00  0.00    +0.137 C 
ATOM     98  CG2 THR A  12      21.912   3.063  -0.671  0.00  0.00    +0.034 C 
BRANCH  97  99
ATOM     99  OG1 THR A  12      23.827   3.623   0.682  0.00  0.00    -0.382 OA
ATOM    100  HG1 THR A  12      24.391   3.373   1.456  0.00  0.00    +0.210 HD
ENDBRANCH  97  99
ENDBRANCH  77  97
ENDBRANCH  75  77
ENDBRANCH  72  73
BRANCH  72 101
ATOM    101  CB  MET A  11      19.545   6.190   4.029  0.00  0.00    +0.041 C 
BRANCH 101 102
ATOM    102  CG  MET A  11      20.994   6.585   4.248  0.00  0.00    +0.060 C 
BRANCH 102 103
ATOM    103  SD  MET A  11      21.124   7.819   5.560  0.00  0.00    -0.139 S 
ATOM    104  CE  MET A  11      20.005   9.059   4.941  0.00  0.00    +0.069 C 
ENDBRANCH 102 103
ENDBRANCH 101 102
ENDBRANCH  72 101
ENDBRANCH  69  72
ENDBRANCH  67  68
BRANCH  67 105
ATOM    105  CB  PHE A  10      15.552   3.675   0.396  0.00  0.00    +0.055 C 
BRANCH 105 106
ATOM    106  CG  PHE A  10      16.277   2.376   0.620  0.00  0.00    -0.020 A 
ATOM    107  CD2 PHE A  10      15.763   1.419   1.483  0.00  0.00    -0.004 A 
ATOM    108  CE2 PHE A  10      16.426   0.196   1.673  0.00  0.00    -0.000 A 
ATOM    109  CZ  PHE A  10      17.609  -0.066   0.993  0.00  0.00    -0.000 A 
ATOM    110  CE1 PHE A  10      18.128   0.878   0.135  0.00  0.00    -0.000 A 
ATOM    111  CD1 PHE A  10      17.461   2.100  -0.050  0.00  0.00    -0.004 A 
ENDBRANCH 105 106
ENDBRANCH  67 105
ENDBRANCH  65  67
ENDBRANCH  62  63
ENDBRANCH  59  62
ENDBRANCH   1  58
BRANCH   1 112
ATOM    112  CB  GLN A   8       8.949   9.396   1.524  0.00  0.00    +0.039 C 
BRANCH 112 113
ATOM    113  CG  GLN A   8       7.515   9.490   2.017  0.00  0.00    +0.087 C 
BRANCH 113 114
ATOM    114  CD  GLN A   8       7.272  10.752   2.832  0.00  0.00    +0.219 C 
ATOM    115  NE2 GLN A   8       6.114  10.828   3.483  0.00  0.00    -0.329 N 
ATOM    116 HE21 GLN A   8       5.896  11.665   4.060  0.00  0.00    +0.145 HD
ATOM    117 HE22 GLN A   8       5.427  10.050   3.415  0.00  0.00    +0.145 HD
ATOM    118  OE1 GLN A   8       8.121  11.647   2.879  0.00  0.00    -0.275 OA
ENDBRANCH 113 114
ENDBRANCH 112 113
ENDBRANCH   1 112
TORSDOF 50
REMARK  Name = ../refined-set-2016/2p4y/2p4y_pocket.pdb
REMARK  273 active torsions:
REMARK  status: ('A' for Active; 'I' for Inactive)
REMARK    1  A    between atoms: _1  and  _3
REMARK    2  A    between atoms: _3  and  _4
REMARK    3  A    between atoms: _3  and  _6
REMARK    4  A    between atoms: _6  and  _7
REMARK    5  A    between atoms: _12  and  _13
REMARK    6  A    between atoms: _15  and  _17
REMARK    7  A    between atoms: _17  and  _18
REMARK    8  A    between atoms: _17  and  _20
REMARK    9  A    between atoms: _20  and  _21
REMARK   10  A    between atoms: _23  and  _25
REMARK   11  A    between atoms: _25  and  _26
REMARK   12  A    between atoms: _25  and  _28
REMARK   13  A    between atoms: _28  and  _29
REMARK   14  A    between atoms: _36  and  _37
REMARK   15  A    between atoms: _42  and  _44
REMARK   16  A    between atoms: _44  and  _45
REMARK   17  A    between atoms: _44  and  _47
REMARK   18  A    between atoms: _47  and  _48
REMARK   19  A    between atoms: _51  and  _53
REMARK   20  A    between atoms: _53  and  _54
REMARK   21  A    between atoms: _53  and  _56
REMARK   22  A    between atoms: _56  and  _57
REMARK   23  A    between atoms: _60  and  _62
REMARK   24  A    between atoms: _62  and  _63
REMARK   25  A    between atoms: _62  and  _65
REMARK   26  A    between atoms: _65  and  _66
REMARK   27  A    between atoms: _69  and  _71
REMARK   28  A    between atoms: _71  and  _72
REMARK   29  A    between atoms: _71  and  _74
REMARK   30  A    between atoms: _74  and  _75
REMARK   31  A    between atoms: _75  and  _76
REMARK   32  A    between atoms: _76  and  _77
REMARK   33  A    between atoms: _86  and  _88
REMARK   34  A    between atoms: _88  and  _89
REMARK   35  A    between atoms: _88  and  _91
REMARK   36  A    between atoms: _91  and  _92
REMARK   37  A    between atoms: _95  and  _97
REMARK   38  A    between atoms: _97  and  _98
REMARK   39  A    between atoms: _97  and  _100
REMARK   40  A    between atoms: _100  and  _101
REMARK   41  A    between atoms: _107  and  _109
REMARK   42  A    between atoms: _109  and  _110
REMARK   43  A    between atoms: _109  and  _112
REMARK   44  A    between atoms: _112  and  _113
REMARK   45  A    between atoms: _113  and  _114
REMARK   46  A    between atoms: _119  and  _121
REMARK   47  A    between atoms: _121  and  _122
REMARK   48  A    between atoms: _124  and  _126
REMARK   49  A    between atoms: _126  and  _127
REMARK   50  A    between atoms: _126  and  _129
REMARK   51  A    between atoms: _131  and  _133
REMARK   52  A    between atoms: _133  and  _134
REMARK   53  A    between atoms: _133  and  _136
REMARK   54  A    between atoms: _136  and  _137
REMARK   55  A    between atoms: _137  and  _138
REMARK   56  A    between atoms: _143  and  _145
REMARK   57  A    between atoms: _145  and  _146
REMARK   58  A    between atoms: _145  and  _148
REMARK   59  A    between atoms: _148  and  _149
REMARK   60  A    between atoms: _155  and  _157
REMARK   61  A    between atoms: _157  and  _158
REMARK   62  A    between atoms: _157  and  _160
REMARK   63  A    between atoms: _160  and  _161
REMARK   64  A    between atoms: _161  and  _162
REMARK   65  A    between atoms: _162  and  _163
REMARK   66  A    between atoms: _172  and  _174
REMARK   67  A    between atoms: _174  and  _175
REMARK   68  A    between atoms: _174  and  _177
REMARK   69  A    between atoms: _177  and  _178
REMARK   70  A    between atoms: _180  and  _182
REMARK   71  A    between atoms: _182  and  _183
REMARK   72  A    between atoms: _182  and  _185
REMARK   73  A    between atoms: _188  and  _190
REMARK   74  A    between atoms: _190  and  _191
REMARK   75  A    between atoms: _190  and  _193
REMARK   76  A    between atoms: _193  and  _194
REMARK   77  A    between atoms: _194  and  _195
REMARK   78  A    between atoms: _198  and  _200
REMARK   79  A    between atoms: _200  and  _201
REMARK   80  A    between atoms: _204  and  _206
REMARK   81  A    between atoms: _206  and  _207
REMARK   82  A    between atoms: _206  and  _209
REMARK   83  A    between atoms: _212  and  _214
REMARK   84  A    between atoms: _214  and  _215
REMARK   85  A    between atoms: _214  and  _217
REMARK   86  A    between atoms: _217  and  _218
REMARK   87  A    between atoms: _218  and  _219
REMARK   88  A    between atoms: _224  and  _226
REMARK   89  A    between atoms: _226  and  _227
REMARK   90  A    between atoms: _226  and  _229
REMARK   91  A    between atoms: _229  and  _230
REMARK   92  A    between atoms: _230  and  _231
REMARK   93  A    between atoms: _234  and  _236
REMARK   94  A    between atoms: _236  and  _237
REMARK   95  A    between atoms: _236  and  _239
REMARK   96  A    between atoms: _239  and  _240
REMARK   97  A    between atoms: _243  and  _245
REMARK   98  A    between atoms: _245  and  _246
REMARK   99  A    between atoms: _245  and  _248
REMARK  100  A    between atoms: _248  and  _249
REMARK  101  A    between atoms: _252  and  _254
REMARK  102  A    between atoms: _254  and  _255
REMARK  103  A    between atoms: _254  and  _257
REMARK  104  A    between atoms: _257  and  _258
REMARK  105  A    between atoms: _263  and  _264
REMARK  106  A    between atoms: _266  and  _268
REMARK  107  A    between atoms: _268  and  _269
REMARK  108  A    between atoms: _268  and  _271
REMARK  109  A    between atoms: _274  and  _276
REMARK  110  A    between atoms: _276  and  _277
REMARK  111  A    between atoms: _276  and  _279
REMARK  112  A    between atoms: _279  and  _280
REMARK  113  A    between atoms: _285  and  _287
REMARK  114  A    between atoms: _287  and  _288
REMARK  115  A    between atoms: _287  and  _290
REMARK  116  A    between atoms: _290  and  _291
REMARK  117  A    between atoms: _294  and  _296
REMARK  118  A    between atoms: _296  and  _297
REMARK  119  A    between atoms: _296  and  _299
REMARK  120  A    between atoms: _299  and  _300
REMARK  121  A    between atoms: _303  and  _305
REMARK  122  A    between atoms: _305  and  _306
REMARK  123  A    between atoms: _305  and  _308
REMARK  124  A    between atoms: _308  and  _309
REMARK  125  A    between atoms: _314  and  _315
REMARK  126  A    between atoms: _317  and  _319
REMARK  127  A    between atoms: _319  and  _320
REMARK  128  A    between atoms: _319  and  _322
REMARK  129  A    between atoms: _322  and  _323
REMARK  130  A    between atoms: _326  and  _328
REMARK  131  A    between atoms: _328  and  _329
REMARK  132  A    between atoms: _328  and  _331
REMARK  133  A    between atoms: _331  and  _332
REMARK  134  A    between atoms: _332  and  _333
REMARK  135  A    between atoms: _335  and  _337
REMARK  136  A    between atoms: _337  and  _338
REMARK  137  A    between atoms: _337  and  _340
REMARK  138  A    between atoms: _340  and  _341
REMARK  139  A    between atoms: _344  and  _346
REMARK  140  A    between atoms: _346  and  _347
REMARK  141  A    between atoms: _350  and  _352
REMARK  142  A    between atoms: _352  and  _353
REMARK  143  A    between atoms: _352  and  _355
REMARK  144  A    between atoms: _355  and  _356
REMARK  145  A    between atoms: _358  and  _360
REMARK  146  A    between atoms: _360  and  _361
REMARK  147  A    between atoms: _360  and  _363
REMARK  148  A    between atoms: _363  and  _364
REMARK  149  A    between atoms: _367  and  _369
REMARK  150  A    between atoms: _369  and  _370
REMARK  151  A    between atoms: _369  and  _372
REMARK  152  A    between atoms: _372  and  _373
REMARK  153  A    between atoms: _373  and  _374
REMARK  154  A    between atoms: _376  and  _378
REMARK  155  A    between atoms: _378  and  _379
REMARK  156  A    between atoms: _381  and  _383
REMARK  157  A    between atoms: _383  and  _384
REMARK  158  A    between atoms: _383  and  _386
REMARK  159  A    between atoms: _389  and  _391
REMARK  160  A    between atoms: _391  and  _392
REMARK  161  A    between atoms: _391  and  _394
REMARK  162  A    between atoms: _394  and  _395
REMARK  163  A    between atoms: _398  and  _400
REMARK  164  A    between atoms: _400  and  _401
REMARK  165  A    between atoms: _400  and  _403
REMARK  166  A    between atoms: _403  and  _404
REMARK  167  A    between atoms: _407  and  _409
REMARK  168  A    between atoms: _409  and  _410
REMARK  169  A    between atoms: _409  and  _412
REMARK  170  A    between atoms: _412  and  _413
REMARK  171  A    between atoms: _415  and  _417
REMARK  172  A    between atoms: _417  and  _418
REMARK  173  A    between atoms: _417  and  _420
REMARK  174  A    between atoms: _420  and  _421
REMARK  175  A    between atoms: _421  and  _422
REMARK  176  A    between atoms: _425  and  _427
REMARK  177  A    between atoms: _427  and  _428
REMARK  178  A    between atoms: _430  and  _432
REMARK  179  A    between atoms: _432  and  _433
REMARK  180  A    between atoms: _432  and  _435
REMARK  181  A    between atoms: _435  and  _436
REMARK  182  A    between atoms: _436  and  _437
REMARK  183  A    between atoms: _442  and  _444
REMARK  184  A    between atoms: _444  and  _445
REMARK  185  A    between atoms: _447  and  _449
REMARK  186  A    between atoms: _449  and  _450
REMARK  187  A    between atoms: _449  and  _452
REMARK  188  A    between atoms: _452  and  _453
REMARK  189  A    between atoms: _459  and  _461
REMARK  190  A    between atoms: _461  and  _462
REMARK  191  A    between atoms: _461  and  _464
REMARK  192  A    between atoms: _464  and  _465
REMARK  193  A    between atoms: _465  and  _466
REMARK  194  A    between atoms: _468  and  _470
REMARK  195  A    between atoms: _470  and  _471
REMARK  196  A    between atoms: _470  and  _473
REMARK  197  A    between atoms: _473  and  _474
REMARK  198  A    between atoms: _477  and  _479
REMARK  199  A    between atoms: _479  and  _480
REMARK  200  A    between atoms: _479  and  _482
REMARK  201  A    between atoms: _482  and  _483
REMARK  202  A    between atoms: _483  and  _484
REMARK  203  A    between atoms: _484  and  _485
REMARK  204  A    between atoms: _494  and  _496
REMARK  205  A    between atoms: _496  and  _497
REMARK  206  A    between atoms: _496  and  _499
REMARK  207  A    between atoms: _499  and  _500
REMARK  208  A    between atoms: _506  and  _508
REMARK  209  A    between atoms: _508  and  _509
REMARK  210  A    between atoms: _508  and  _511
REMARK  211  A    between atoms: _511  and  _512
REMARK  212  A    between atoms: _515  and  _517
REMARK  213  A    between atoms: _517  and  _518
REMARK  214  A    between atoms: _517  and  _520
REMARK  215  A    between atoms: _520  and  _521
REMARK  216  A    between atoms: _524  and  _526
REMARK  217  A    between atoms: _526  and  _527
REMARK  218  A    between atoms: _526  and  _529
REMARK  219  A    between atoms: _529  and  _530
REMARK  220  A    between atoms: _536  and  _538
REMARK  221  A    between atoms: _538  and  _539
REMARK  222  A    between atoms: _538  and  _541
REMARK  223  A    between atoms: _541  and  _542
REMARK  224  A    between atoms: _542  and  _543
REMARK  225  A    between atoms: _545  and  _547
REMARK  226  A    between atoms: _547  and  _548
REMARK  227  A    between atoms: _547  and  _550
REMARK  228  A    between atoms: _550  and  _551
REMARK  229  A    between atoms: _551  and  _552
REMARK  230  A    between atoms: _556  and  _557
REMARK  231  A    between atoms: _562  and  _564
REMARK  232  A    between atoms: _564  and  _565
REMARK  233  A    between atoms: _564  and  _567
REMARK  234  A    between atoms: _567  and  _568
REMARK  235  A    between atoms: _568  and  _569
REMARK  236  A    between atoms: _569  and  _570
REMARK  237  A    between atoms: _570  and  _571
REMARK  238  A    between atoms: _575  and  _577
REMARK  239  A    between atoms: _577  and  _578
REMARK  240  A    between atoms: _577  and  _580
REMARK  241  A    between atoms: _580  and  _581
REMARK  242  A    between atoms: _587  and  _589
REMARK  243  A    between atoms: _589  and  _590
REMARK  244  A    between atoms: _589  and  _592
REMARK  245  A    between atoms: _592  and  _593
REMARK  246  A    between atoms: _596  and  _598
REMARK  247  A    between atoms: _598  and  _599
REMARK  248  A    between atoms: _598  and  _601
REMARK  249  A    between atoms: _601  and  _602
REMARK  250  A    between atoms: _605  and  _607
REMARK  251  A    between atoms: _607  and  _608
REMARK  252  A    between atoms: _607  and  _610
REMARK  253  A    between atoms: _613  and  _615
REMARK  254  A    between atoms: _615  and  _616
REMARK  255  A    between atoms: _615  and  _618
REMARK  256  A    between atoms: _618  and  _619
REMARK  257  A    between atoms: _624  and  _626
REMARK  258  A    between atoms: _626  and  _627
REMARK  259  A    between atoms: _626  and  _629
REMARK  260  A    between atoms: _629  and  _630
REMARK  261  A    between atoms: _633  and  _635
REMARK  262  A    between atoms: _635  and  _636
REMARK  263  A    between atoms: _635  and  _638
REMARK  264  A    between atoms: _638  and  _639
REMARK  265  A    between atoms: _642  and  _644
REMARK  266  A    between atoms: _644  and  _645
REMARK  267  A    between atoms: _644  and  _647
REMARK  268  A    between atoms: _647  and  _648
REMARK  269  A    between atoms: _651  and  _653
REMARK  270  A    between atoms: _653  and  _654
REMARK  271  A    between atoms: _653  and  _656
REMARK  272  A    between atoms: _656  and  _657
REMARK  273  A    between atoms: _662  and  _663
REMARK                            x       y       z     vdW  Elec       q    Type
REMARK                         _______ _______ _______ _____ _____    ______ ____
ROOT
ATOM      1  C   PHE A   1      26.754   5.485   4.280  0.00  0.00    +0.239 C 
ATOM      2  N   LEU A   2      25.954   4.788   5.086  0.00  0.00    -0.298 N 
ATOM      3  H   LEU A   2      25.270   4.129   4.663  0.00  0.00    +0.150 HD
ATOM      4  O   PHE A   1      27.638   6.233   4.693  0.00  0.00    -0.274 OA
ENDROOT
BRANCH   1   5
ATOM      5  CA  PHE A   1      26.540   5.282   2.777  0.00  0.00    +0.149 C 
BRANCH   5   6
ATOM      6  N   PHE A   1      26.435   3.859   2.491  0.00  0.00    -0.238 NA
ATOM      7  H   PHE A   1      25.625   3.496   1.948  0.00  0.00    +0.142 HD
ENDBRANCH   5   6
BRANCH   5   8
ATOM      8  CB  PHE A   1      25.271   6.016   2.333  0.00  0.00    +0.053 C 
BRANCH   8   9
ATOM      9  CG  PHE A   1      25.337   7.499   2.540  0.00  0.00    -0.020 A 
ATOM     10  CD2 PHE A   1      24.287   8.180   3.126  0.00  0.00    -0.004 A 
ATOM     11  CE2 PHE A   1      24.363   9.542   3.341  0.00  0.00    -0.000 A 
ATOM     12  CZ  PHE A   1      25.502  10.241   2.968  0.00  0.00    -0.000 A 
ATOM     13  CE1 PHE A   1      26.554   9.575   2.383  0.00  0.00    -0.000 A 
ATOM     14  CD1 PHE A   1      26.471   8.210   2.169  0.00  0.00    -0.004 A 
ENDBRANCH   8   9
ENDBRANCH   5   8
ENDBRANCH   1   5
BRANCH   2  15
ATOM     15  CA  LEU A   2      25.999   4.913   6.538  0.00  0.00    +0.137 C 
BRANCH  15  16
ATOM     16  C   LEU A   2      27.290   4.371   7.150  0.00  0.00    +0.227 C 
ATOM     17  O   LEU A   2      27.664   4.758   8.253  0.00  0.00    -0.286 OA
ENDBRANCH  15  16
BRANCH  15  18
ATOM     18  CB  LEU A   2      24.799   4.196   7.168  0.00  0.00    +0.028 C 
BRANCH  18  19
ATOM     19  CG  LEU A   2      23.416   4.841   7.062  0.00  0.00    +0.002 C 
ATOM     20  CD2 LEU A   2      23.281   5.982   8.060  0.00  0.00    +0.000 C 
ATOM     21  CD1 LEU A   2      22.356   3.788   7.320  0.00  0.00    +0.000 C 
ENDBRANCH  18  19
ENDBRANCH  15  18
ENDBRANCH   2  15
TORSDOF 8
REMARK  Name = ../refined-set-2016/2p4y/2p4y_pocket.pdb
REMARK  273 active torsions:
REMARK  status: ('A' for Active; 'I' for Inactive)
REMARK    1  A    between atoms: _1  and  _3
REMARK    2  A    between atoms: _3  and  _4
REMARK    3  A    between atoms: _3  and  _6
REMARK    4  A    between atoms: _6  and  _7
REMARK    5  A    between atoms: _12  and  _13
REMARK    6  A    between atoms: _15  and  _17
REMARK    7  A    between atoms: _17  and  _18
REMARK    8  A    between atoms: _17  and  _20
REMARK    9  A    between atoms: _20  and  _21
REMARK   10  A    between atoms: _23  and  _25
REMARK   11  A    between atoms: _25  and  _26
REMARK   12  A    between atoms: _25  and  _28
REMARK   13  A    between atoms: _28  and  _29
REMARK   14  A    between atoms: _36  and  _37
REMARK   15  A    between atoms: _42  and  _44
REMARK   16  A    between atoms: _44  and  _45
REMARK   17  A    between atoms: _44  and  _47
REMARK   18  A    between atoms: _47  and  _48
REMARK   19  A    between atoms: _51  and  _53
REMARK   20  A    between atoms: _53  and  _54
REMARK   21  A    between atoms: _53  and  _56
REMARK   22  A    between atoms: _56  and  _57
REMARK   23  A    between atoms: _60  and  _62
REMARK   24  A    between atoms: _62  and  _63
REMARK   25  A    between atoms: _62  and  _65
REMARK   26  A    between atoms: _65  and  _66
REMARK   27  A    between atoms: _69  and  _71
REMARK   28  A    between atoms: _71  and  _72
REMARK   29  A    between atoms: _71  and  _74
REMARK   30  A    between atoms: _74  and  _75
REMARK   31  A    between atoms: _75  and  _76
REMARK   32  A    between atoms: _76  and  _77
REMARK   33  A    between atoms: _86  and  _88
REMARK   34  A    between atoms: _88  and  _89
REMARK   35  A    between atoms: _88  and  _91
REMARK   36  A    between atoms: _91  and  _92
REMARK   37  A    between atoms: _95  and  _97
REMARK   38  A    between atoms: _97  and  _98
REMARK   39  A    between atoms: _97  and  _100
REMARK   40  A    between atoms: _100  and  _101
REMARK   41  A    between atoms: _107  and  _109
REMARK   42  A    between atoms: _109  and  _110
REMARK   43  A    between atoms: _109  and  _112
REMARK   44  A    between atoms: _112  and  _113
REMARK   45  A    between atoms: _113  and  _114
REMARK   46  A    between atoms: _119  and  _121
REMARK   47  A    between atoms: _121  and  _122
REMARK   48  A    between atoms: _124  and  _126
REMARK   49  A    between atoms: _126  and  _127
REMARK   50  A    between atoms: _126  and  _129
REMARK   51  A    between atoms: _131  and  _133
REMARK   52  A    between atoms: _133  and  _134
REMARK   53  A    between atoms: _133  and  _136
REMARK   54  A    between atoms: _136  and  _137
REMARK   55  A    between atoms: _137  and  _138
REMARK   56  A    between atoms: _143  and  _145
REMARK   57  A    between atoms: _145  and  _146
REMARK   58  A    between atoms: _145  and  _148
REMARK   59  A    between atoms: _148  and  _149
REMARK   60  A    between atoms: _155  and  _157
REMARK   61  A    between atoms: _157  and  _158
REMARK   62  A    between atoms: _157  and  _160
REMARK   63  A    between atoms: _160  and  _161
REMARK   64  A    between atoms: _161  and  _162
REMARK   65  A    between atoms: _162  and  _163
REMARK   66  A    between atoms: _172  and  _174
REMARK   67  A    between atoms: _174  and  _175
REMARK   68  A    between atoms: _174  and  _177
REMARK   69  A    between atoms: _177  and  _178
REMARK   70  A    between atoms: _180  and  _182
REMARK   71  A    between atoms: _182  and  _183
REMARK   72  A    between atoms: _182  and  _185
REMARK   73  A    between atoms: _188  and  _190
REMARK   74  A    between atoms: _190  and  _191
REMARK   75  A    between atoms: _190  and  _193
REMARK   76  A    between atoms: _193  and  _194
REMARK   77  A    between atoms: _194  and  _195
REMARK   78  A    between atoms: _198  and  _200
REMARK   79  A    between atoms: _200  and  _201
REMARK   80  A    between atoms: _204  and  _206
REMARK   81  A    between atoms: _206  and  _207
REMARK   82  A    between atoms: _206  and  _209
REMARK   83  A    between atoms: _212  and  _214
REMARK   84  A    between atoms: _214  and  _215
REMARK   85  A    between atoms: _214  and  _217
REMARK   86  A    between atoms: _217  and  _218
REMARK   87  A    between atoms: _218  and  _219
REMARK   88  A    between atoms: _224  and  _226
REMARK   89  A    between atoms: _226  and  _227
REMARK   90  A    between atoms: _226  and  _229
REMARK   91  A    between atoms: _229  and  _230
REMARK   92  A    between atoms: _230  and  _231
REMARK   93  A    between atoms: _234  and  _236
REMARK   94  A    between atoms: _236  and  _237
REMARK   95  A    between atoms: _236  and  _239
REMARK   96  A    between atoms: _239  and  _240
REMARK   97  A    between atoms: _243  and  _245
REMARK   98  A    between atoms: _245  and  _246
REMARK   99  A    between atoms: _245  and  _248
REMARK  100  A    between atoms: _248  and  _249
REMARK  101  A    between atoms: _252  and  _254
REMARK  102  A    between atoms: _254  and  _255
REMARK  103  A    between atoms: _254  and  _257
REMARK  104  A    between atoms: _257  and  _258
REMARK  105  A    between atoms: _263  and  _264
REMARK  106  A    between atoms: _266  and  _268
REMARK  107  A    between atoms: _268  and  _269
REMARK  108  A    between atoms: _268  and  _271
REMARK  109  A    between atoms: _274  and  _276
REMARK  110  A    between atoms: _276  and  _277
REMARK  111  A    between atoms: _276  and  _279
REMARK  112  A    between atoms: _279  and  _280
REMARK  113  A    between atoms: _285  and  _287
REMARK  114  A    between atoms: _287  and  _288
REMARK  115  A    between atoms: _287  and  _290
REMARK  116  A    between atoms: _290  and  _291
REMARK  117  A    between atoms: _294  and  _296
REMARK  118  A    between atoms: _296  and  _297
REMARK  119  A    between atoms: _296  and  _299
REMARK  120  A    between atoms: _299  and  _300
REMARK  121  A    between atoms: _303  and  _305
REMARK  122  A    between atoms: _305  and  _306
REMARK  123  A    between atoms: _305  and  _308
REMARK  124  A    between atoms: _308  and  _309
REMARK  125  A    between atoms: _314  and  _315
REMARK  126  A    between atoms: _317  and  _319
REMARK  127  A    between atoms: _319  and  _320
REMARK  128  A    between atoms: _319  and  _322
REMARK  129  A    between atoms: _322  and  _323
REMARK  130  A    between atoms: _326  and  _328
REMARK  131  A    between atoms: _328  and  _329
REMARK  132  A    between atoms: _328  and  _331
REMARK  133  A    between atoms: _331  and  _332
REMARK  134  A    between atoms: _332  and  _333
REMARK  135  A    between atoms: _335  and  _337
REMARK  136  A    between atoms: _337  and  _338
REMARK  137  A    between atoms: _337  and  _340
REMARK  138  A    between atoms: _340  and  _341
REMARK  139  A    between atoms: _344  and  _346
REMARK  140  A    between atoms: _346  and  _347
REMARK  141  A    between atoms: _350  and  _352
REMARK  142  A    between atoms: _352  and  _353
REMARK  143  A    between atoms: _352  and  _355
REMARK  144  A    between atoms: _355  and  _356
REMARK  145  A    between atoms: _358  and  _360
REMARK  146  A    between atoms: _360  and  _361
REMARK  147  A    between atoms: _360  and  _363
REMARK  148  A    between atoms: _363  and  _364
REMARK  149  A    between atoms: _367  and  _369
REMARK  150  A    between atoms: _369  and  _370
REMARK  151  A    between atoms: _369  and  _372
REMARK  152  A    between atoms: _372  and  _373
REMARK  153  A    between atoms: _373  and  _374
REMARK  154  A    between atoms: _376  and  _378
REMARK  155  A    between atoms: _378  and  _379
REMARK  156  A    between atoms: _381  and  _383
REMARK  157  A    between atoms: _383  and  _384
REMARK  158  A    between atoms: _383  and  _386
REMARK  159  A    between atoms: _389  and  _391
REMARK  160  A    between atoms: _391  and  _392
REMARK  161  A    between atoms: _391  and  _394
REMARK  162  A    between atoms: _394  and  _395
REMARK  163  A    between atoms: _398  and  _400
REMARK  164  A    between atoms: _400  and  _401
REMARK  165  A    between atoms: _400  and  _403
REMARK  166  A    between atoms: _403  and  _404
REMARK  167  A    between atoms: _407  and  _409
REMARK  168  A    between atoms: _409  and  _410
REMARK  169  A    between atoms: _409  and  _412
REMARK  170  A    between atoms: _412  and  _413
REMARK  171  A    between atoms: _415  and  _417
REMARK  172  A    between atoms: _417  and  _418
REMARK  173  A    between atoms: _417  and  _420
REMARK  174  A    between atoms: _420  and  _421
REMARK  175  A    between atoms: _421  and  _422
REMARK  176  A    between atoms: _425  and  _427
REMARK  177  A    between atoms: _427  and  _428
REMARK  178  A    between atoms: _430  and  _432
REMARK  179  A    between atoms: _432  and  _433
REMARK  180  A    between atoms: _432  and  _435
REMARK  181  A    between atoms: _435  and  _436
REMARK  182  A    between atoms: _436  and  _437
REMARK  183  A    between atoms: _442  and  _444
REMARK  184  A    between atoms: _444  and  _445
REMARK  185  A    between atoms: _447  and  _449
REMARK  186  A    between atoms: _449  and  _450
REMARK  187  A    between atoms: _449  and  _452
REMARK  188  A    between atoms: _452  and  _453
REMARK  189  A    between atoms: _459  and  _461
REMARK  190  A    between atoms: _461  and  _462
REMARK  191  A    between atoms: _461  and  _464
REMARK  192  A    between atoms: _464  and  _465
REMARK  193  A    between atoms: _465  and  _466
REMARK  194  A    between atoms: _468  and  _470
REMARK  195  A    between atoms: _470  and  _471
REMARK  196  A    between atoms: _470  and  _473
REMARK  197  A    between atoms: _473  and  _474
REMARK  198  A    between atoms: _477  and  _479
REMARK  199  A    between atoms: _479  and  _480
REMARK  200  A    between atoms: _479  and  _482
REMARK  201  A    between atoms: _482  and  _483
REMARK  202  A    between atoms: _483  and  _484
REMARK  203  A    between atoms: _484  and  _485
REMARK  204  A    between atoms: _494  and  _496
REMARK  205  A    between atoms: _496  and  _497
REMARK  206  A    between atoms: _496  and  _499
REMARK  207  A    between atoms: _499  and  _500
REMARK  208  A    between atoms: _506  and  _508
REMARK  209  A    between atoms: _508  and  _509
REMARK  210  A    between atoms: _508  and  _511
REMARK  211  A    between atoms: _511  and  _512
REMARK  212  A    between atoms: _515  and  _517
REMARK  213  A    between atoms: _517  and  _518
REMARK  214  A    between atoms: _517  and  _520
REMARK  215  A    between atoms: _520  and  _521
REMARK  216  A    between atoms: _524  and  _526
REMARK  217  A    between atoms: _526  and  _527
REMARK  218  A    between atoms: _526  and  _529
REMARK  219  A    between atoms: _529  and  _530
REMARK  220  A    between atoms: _536  and  _538
REMARK  221  A    between atoms: _538  and  _539
REMARK  222  A    between atoms: _538  and  _541
REMARK  223  A    between atoms: _541  and  _542
REMARK  224  A    between atoms: _542  and  _543
REMARK  225  A    between atoms: _545  and  _547
REMARK  226  A    between atoms: _547  and  _548
REMARK  227  A    between atoms: _547  and  _550
REMARK  228  A    between atoms: _550  and  _551
REMARK  229  A    between atoms: _551  and  _552
REMARK  230  A    between atoms: _556  and  _557
REMARK  231  A    between atoms: _562  and  _564
REMARK  232  A    between atoms: _564  and  _565
REMARK  233  A    between atoms: _564  and  _567
REMARK  234  A    between atoms: _567  and  _568
REMARK  235  A    between atoms: _568  and  _569
REMARK  236  A    between atoms: _569  and  _570
REMARK  237  A    between atoms: _570  and  _571
REMARK  238  A    between atoms: _575  and  _577
REMARK  239  A    between atoms: _577  and  _578
REMARK  240  A    between atoms: _577  and  _580
REMARK  241  A    between atoms: _580  and  _581
REMARK  242  A    between atoms: _587  and  _589
REMARK  243  A    between atoms: _589  and  _590
REMARK  244  A    between atoms: _589  and  _592
REMARK  245  A    between atoms: _592  and  _593
REMARK  246  A    between atoms: _596  and  _598
REMARK  247  A    between atoms: _598  and  _599
REMARK  248  A    between atoms: _598  and  _601
REMARK  249  A    between atoms: _601  and  _602
REMARK  250  A    between atoms: _605  and  _607
REMARK  251  A    between atoms: _607  and  _608
REMARK  252  A    between atoms: _607  and  _610
REMARK  253  A    between atoms: _613  and  _615
REMARK  254  A    between atoms: _615  and  _616
REMARK  255  A    between atoms: _615  and  _618
REMARK  256  A    between atoms: _618  and  _619
REMARK  257  A    between atoms: _624  and  _626
REMARK  258  A    between atoms: _626  and  _627
REMARK  259  A    between atoms: _626  and  _629
REMARK  260  A    between atoms: _629  and  _630
REMARK  261  A    between atoms: _633  and  _635
REMARK  262  A    between atoms: _635  and  _636
REMARK  263  A    between atoms: _635  and  _638
REMARK  264  A    between atoms: _638  and  _639
REMARK  265  A    between atoms: _642  and  _644
REMARK  266  A    between atoms: _644  and  _645
REMARK  267  A    between atoms: _644  and  _647
REMARK  268  A    between atoms: _647  and  _648
REMARK  269  A    between atoms: _651  and  _653
REMARK  270  A    between atoms: _653  and  _654
REMARK  271  A    between atoms: _653  and  _656
REMARK  272  A    between atoms: _656  and  _657
REMARK  273  A    between atoms: _662  and  _663
REMARK                            x       y       z     vdW  Elec       q    Type
REMARK                         _______ _______ _______ _____ _____    ______ ____
ROOT
ATOM      1  CA  LEU A   1      30.354   8.422   7.631  0.00  0.00    +0.133 C 
ENDROOT
BRANCH   1   2
ATOM      2  N   LEU A   1      30.453   7.145   6.946  0.00  0.00    -0.239 NA
ATOM      3  H   LEU A   1      29.860   6.349   7.255  0.00  0.00    +0.142 HD
ENDBRANCH   1   2
BRANCH   1   4
ATOM      4  C   LEU A   1      31.571   8.736   8.492  0.00  0.00    +0.224 C 
ATOM      5  O   LEU A   1      32.310   7.840   8.913  0.00  0.00    -0.287 OA
ENDBRANCH   1   4
BRANCH   1   6
ATOM      6  CB  LEU A   1      29.088   8.467   8.483  0.00  0.00    +0.025 C 
BRANCH   6   7
ATOM      7  CG  LEU A   1      27.799   8.419   7.662  0.00  0.00    +0.002 C 
ATOM      8  CD2 LEU A   1      26.622   8.788   8.531  0.00  0.00    +0.000 C 
ATOM      9  CD1 LEU A   1      27.916   9.374   6.486  0.00  0.00    +0.000 C 
ENDBRANCH   6   7
ENDBRANCH   1   6
TORSDOF 4
REMARK  Name = ../refined-set-2016/2p4y/2p4y_pocket.pdb
REMARK  273 active torsions:
REMARK  status: ('A' for Active; 'I' for Inactive)
REMARK    1  A    between atoms: _1  and  _3
REMARK    2  A    between atoms: _3  and  _4
REMARK    3  A    between atoms: _3  and  _6
REMARK    4  A    between atoms: _6  and  _7
REMARK    5  A    between atoms: _12  and  _13
REMARK    6  A    between atoms: _15  and  _17
REMARK    7  A    between atoms: _17  and  _18
REMARK    8  A    between atoms: _17  and  _20
REMARK    9  A    between atoms: _20  and  _21
REMARK   10  A    between atoms: _23  and  _25
REMARK   11  A    between atoms: _25  and  _26
REMARK   12  A    between atoms: _25  and  _28
REMARK   13  A    between atoms: _28  and  _29
REMARK   14  A    between atoms: _36  and  _37
REMARK   15  A    between atoms: _42  and  _44
REMARK   16  A    between atoms: _44  and  _45
REMARK   17  A    between atoms: _44  and  _47
REMARK   18  A    between atoms: _47  and  _48
REMARK   19  A    between atoms: _51  and  _53
REMARK   20  A    between atoms: _53  and  _54
REMARK   21  A    between atoms: _53  and  _56
REMARK   22  A    between atoms: _56  and  _57
REMARK   23  A    between atoms: _60  and  _62
REMARK   24  A    between atoms: _62  and  _63
REMARK   25  A    between atoms: _62  and  _65
REMARK   26  A    between atoms: _65  and  _66
REMARK   27  A    between atoms: _69  and  _71
REMARK   28  A    between atoms: _71  and  _72
REMARK   29  A    between atoms: _71  and  _74
REMARK   30  A    between atoms: _74  and  _75
REMARK   31  A    between atoms: _75  and  _76
REMARK   32  A    between atoms: _76  and  _77
REMARK   33  A    between atoms: _86  and  _88
REMARK   34  A    between atoms: _88  and  _89
REMARK   35  A    between atoms: _88  and  _91
REMARK   36  A    between atoms: _91  and  _92
REMARK   37  A    between atoms: _95  and  _97
REMARK   38  A    between atoms: _97  and  _98
REMARK   39  A    between atoms: _97  and  _100
REMARK   40  A    between atoms: _100  and  _101
REMARK   41  A    between atoms: _107  and  _109
REMARK   42  A    between atoms: _109  and  _110
REMARK   43  A    between atoms: _109  and  _112
REMARK   44  A    between atoms: _112  and  _113
REMARK   45  A    between atoms: _113  and  _114
REMARK   46  A    between atoms: _119  and  _121
REMARK   47  A    between atoms: _121  and  _122
REMARK   48  A    between atoms: _124  and  _126
REMARK   49  A    between atoms: _126  and  _127
REMARK   50  A    between atoms: _126  and  _129
REMARK   51  A    between atoms: _131  and  _133
REMARK   52  A    between atoms: _133  and  _134
REMARK   53  A    between atoms: _133  and  _136
REMARK   54  A    between atoms: _136  and  _137
REMARK   55  A    between atoms: _137  and  _138
REMARK   56  A    between atoms: _143  and  _145
REMARK   57  A    between atoms: _145  and  _146
REMARK   58  A    between atoms: _145  and  _148
REMARK   59  A    between atoms: _148  and  _149
REMARK   60  A    between atoms: _155  and  _157
REMARK   61  A    between atoms: _157  and  _158
REMARK   62  A    between atoms: _157  and  _160
REMARK   63  A    between atoms: _160  and  _161
REMARK   64  A    between atoms: _161  and  _162
REMARK   65  A    between atoms: _162  and  _163
REMARK   66  A    between atoms: _172  and  _174
REMARK   67  A    between atoms: _174  and  _175
REMARK   68  A    between atoms: _174  and  _177
REMARK   69  A    between atoms: _177  and  _178
REMARK   70  A    between atoms: _180  and  _182
REMARK   71  A    between atoms: _182  and  _183
REMARK   72  A    between atoms: _182  and  _185
REMARK   73  A    between atoms: _188  and  _190
REMARK   74  A    between atoms: _190  and  _191
REMARK   75  A    between atoms: _190  and  _193
REMARK   76  A    between atoms: _193  and  _194
REMARK   77  A    between atoms: _194  and  _195
REMARK   78  A    between atoms: _198  and  _200
REMARK   79  A    between atoms: _200  and  _201
REMARK   80  A    between atoms: _204  and  _206
REMARK   81  A    between atoms: _206  and  _207
REMARK   82  A    between atoms: _206  and  _209
REMARK   83  A    between atoms: _212  and  _214
REMARK   84  A    between atoms: _214  and  _215
REMARK   85  A    between atoms: _214  and  _217
REMARK   86  A    between atoms: _217  and  _218
REMARK   87  A    between atoms: _218  and  _219
REMARK   88  A    between atoms: _224  and  _226
REMARK   89  A    between atoms: _226  and  _227
REMARK   90  A    between atoms: _226  and  _229
REMARK   91  A    between atoms: _229  and  _230
REMARK   92  A    between atoms: _230  and  _231
REMARK   93  A    between atoms: _234  and  _236
REMARK   94  A    between atoms: _236  and  _237
REMARK   95  A    between atoms: _236  and  _239
REMARK   96  A    between atoms: _239  and  _240
REMARK   97  A    between atoms: _243  and  _245
REMARK   98  A    between atoms: _245  and  _246
REMARK   99  A    between atoms: _245  and  _248
REMARK  100  A    between atoms: _248  and  _249
REMARK  101  A    between atoms: _252  and  _254
REMARK  102  A    between atoms: _254  and  _255
REMARK  103  A    between atoms: _254  and  _257
REMARK  104  A    between atoms: _257  and  _258
REMARK  105  A    between atoms: _263  and  _264
REMARK  106  A    between atoms: _266  and  _268
REMARK  107  A    between atoms: _268  and  _269
REMARK  108  A    between atoms: _268  and  _271
REMARK  109  A    between atoms: _274  and  _276
REMARK  110  A    between atoms: _276  and  _277
REMARK  111  A    between atoms: _276  and  _279
REMARK  112  A    between atoms: _279  and  _280
REMARK  113  A    between atoms: _285  and  _287
REMARK  114  A    between atoms: _287  and  _288
REMARK  115  A    between atoms: _287  and  _290
REMARK  116  A    between atoms: _290  and  _291
REMARK  117  A    between atoms: _294  and  _296
REMARK  118  A    between atoms: _296  and  _297
REMARK  119  A    between atoms: _296  and  _299
REMARK  120  A    between atoms: _299  and  _300
REMARK  121  A    between atoms: _303  and  _305
REMARK  122  A    between atoms: _305  and  _306
REMARK  123  A    between atoms: _305  and  _308
REMARK  124  A    between atoms: _308  and  _309
REMARK  125  A    between atoms: _314  and  _315
REMARK  126  A    between atoms: _317  and  _319
REMARK  127  A    between atoms: _319  and  _320
REMARK  128  A    between atoms: _319  and  _322
REMARK  129  A    between atoms: _322  and  _323
REMARK  130  A    between atoms: _326  and  _328
REMARK  131  A    between atoms: _328  and  _329
REMARK  132  A    between atoms: _328  and  _331
REMARK  133  A    between atoms: _331  and  _332
REMARK  134  A    between atoms: _332  and  _333
REMARK  135  A    between atoms: _335  and  _337
REMARK  136  A    between atoms: _337  and  _338
REMARK  137  A    between atoms: _337  and  _340
REMARK  138  A    between atoms: _340  and  _341
REMARK  139  A    between atoms: _344  and  _346
REMARK  140  A    between atoms: _346  and  _347
REMARK  141  A    between atoms: _350  and  _352
REMARK  142  A    between atoms: _352  and  _353
REMARK  143  A    between atoms: _352  and  _355
REMARK  144  A    between atoms: _355  and  _356
REMARK  145  A    between atoms: _358  and  _360
REMARK  146  A    between atoms: _360  and  _361
REMARK  147  A    between atoms: _360  and  _363
REMARK  148  A    between atoms: _363  and  _364
REMARK  149  A    between atoms: _367  and  _369
REMARK  150  A    between atoms: _369  and  _370
REMARK  151  A    between atoms: _369  and  _372
REMARK  152  A    between atoms: _372  and  _373
REMARK  153  A    between atoms: _373  and  _374
REMARK  154  A    between atoms: _376  and  _378
REMARK  155  A    between atoms: _378  and  _379
REMARK  156  A    between atoms: _381  and  _383
REMARK  157  A    between atoms: _383  and  _384
REMARK  158  A    between atoms: _383  and  _386
REMARK  159  A    between atoms: _389  and  _391
REMARK  160  A    between atoms: _391  and  _392
REMARK  161  A    between atoms: _391  and  _394
REMARK  162  A    between atoms: _394  and  _395
REMARK  163  A    between atoms: _398  and  _400
REMARK  164  A    between atoms: _400  and  _401
REMARK  165  A    between atoms: _400  and  _403
REMARK  166  A    between atoms: _403  and  _404
REMARK  167  A    between atoms: _407  and  _409
REMARK  168  A    between atoms: _409  and  _410
REMARK  169  A    between atoms: _409  and  _412
REMARK  170  A    between atoms: _412  and  _413
REMARK  171  A    between atoms: _415  and  _417
REMARK  172  A    between atoms: _417  and  _418
REMARK  173  A    between atoms: _417  and  _420
REMARK  174  A    between atoms: _420  and  _421
REMARK  175  A    between atoms: _421  and  _422
REMARK  176  A    between atoms: _425  and  _427
REMARK  177  A    between atoms: _427  and  _428
REMARK  178  A    between atoms: _430  and  _432
REMARK  179  A    between atoms: _432  and  _433
REMARK  180  A    between atoms: _432  and  _435
REMARK  181  A    between atoms: _435  and  _436
REMARK  182  A    between atoms: _436  and  _437
REMARK  183  A    between atoms: _442  and  _444
REMARK  184  A    between atoms: _444  and  _445
REMARK  185  A    between atoms: _447  and  _449
REMARK  186  A    between atoms: _449  and  _450
REMARK  187  A    between atoms: _449  and  _452
REMARK  188  A    between atoms: _452  and  _453
REMARK  189  A    between atoms: _459  and  _461
REMARK  190  A    between atoms: _461  and  _462
REMARK  191  A    between atoms: _461  and  _464
REMARK  192  A    between atoms: _464  and  _465
REMARK  193  A    between atoms: _465  and  _466
REMARK  194  A    between atoms: _468  and  _470
REMARK  195  A    between atoms: _470  and  _471
REMARK  196  A    between atoms: _470  and  _473
REMARK  197  A    between atoms: _473  and  _474
REMARK  198  A    between atoms: _477  and  _479
REMARK  199  A    between atoms: _479  and  _480
REMARK  200  A    between atoms: _479  and  _482
REMARK  201  A    between atoms: _482  and  _483
REMARK  202  A    between atoms: _483  and  _484
REMARK  203  A    between atoms: _484  and  _485
REMARK  204  A    between atoms: _494  and  _496
REMARK  205  A    between atoms: _496  and  _497
REMARK  206  A    between atoms: _496  and  _499
REMARK  207  A    between atoms: _499  and  _500
REMARK  208  A    between atoms: _506  and  _508
REMARK  209  A    between atoms: _508  and  _509
REMARK  210  A    between atoms: _508  and  _511
REMARK  211  A    between atoms: _511  and  _512
REMARK  212  A    between atoms: _515  and  _517
REMARK  213  A    between atoms: _517  and  _518
REMARK  214  A    between atoms: _517  and  _520
REMARK  215  A    between atoms: _520  and  _521
REMARK  216  A    between atoms: _524  and  _526
REMARK  217  A    between atoms: _526  and  _527
REMARK  218  A    between atoms: _526  and  _529
REMARK  219  A    between atoms: _529  and  _530
REMARK  220  A    between atoms: _536  and  _538
REMARK  221  A    between atoms: _538  and  _539
REMARK  222  A    between atoms: _538  and  _541
REMARK  223  A    between atoms: _541  and  _542
REMARK  224  A    between atoms: _542  and  _543
REMARK  225  A    between atoms: _545  and  _547
REMARK  226  A    between atoms: _547  and  _548
REMARK  227  A    between atoms: _547  and  _550
REMARK  228  A    between atoms: _550  and  _551
REMARK  229  A    between atoms: _551  and  _552
REMARK  230  A    between atoms: _556  and  _557
REMARK  231  A    between atoms: _562  and  _564
REMARK  232  A    between atoms: _564  and  _565
REMARK  233  A    between atoms: _564  and  _567
REMARK  234  A    between atoms: _567  and  _568
REMARK  235  A    between atoms: _568  and  _569
REMARK  236  A    between atoms: _569  and  _570
REMARK  237  A    between atoms: _570  and  _571
REMARK  238  A    between atoms: _575  and  _577
REMARK  239  A    between atoms: _577  and  _578
REMARK  240  A    between atoms: _577  and  _580
REMARK  241  A    between atoms: _580  and  _581
REMARK  242  A    between atoms: _587  and  _589
REMARK  243  A    between atoms: _589  and  _590
REMARK  244  A    between atoms: _589  and  _592
REMARK  245  A    between atoms: _592  and  _593
REMARK  246  A    between atoms: _596  and  _598
REMARK  247  A    between atoms: _598  and  _599
REMARK  248  A    between atoms: _598  and  _601
REMARK  249  A    between atoms: _601  and  _602
REMARK  250  A    between atoms: _605  and  _607
REMARK  251  A    between atoms: _607  and  _608
REMARK  252  A    between atoms: _607  and  _610
REMARK  253  A    between atoms: _613  and  _615
REMARK  254  A    between atoms: _615  and  _616
REMARK  255  A    between atoms: _615  and  _618
REMARK  256  A    between atoms: _618  and  _619
REMARK  257  A    between atoms: _624  and  _626
REMARK  258  A    between atoms: _626  and  _627
REMARK  259  A    between atoms: _626  and  _629
REMARK  260  A    between atoms: _629  and  _630
REMARK  261  A    between atoms: _633  and  _635
REMARK  262  A    between atoms: _635  and  _636
REMARK  263  A    between atoms: _635  and  _638
REMARK  264  A    between atoms: _638  and  _639
REMARK  265  A    between atoms: _642  and  _644
REMARK  266  A    between atoms: _644  and  _645
REMARK  267  A    between atoms: _644  and  _647
REMARK  268  A    between atoms: _647  and  _648
REMARK  269  A    between atoms: _651  and  _653
REMARK  270  A    between atoms: _653  and  _654
REMARK  271  A    between atoms: _653  and  _656
REMARK  272  A    between atoms: _656  and  _657
REMARK  273  A    between atoms: _662  and  _663
REMARK                            x       y       z     vdW  Elec       q    Type
REMARK                         _______ _______ _______ _____ _____    ______ ____
ROOT
ATOM      1  C   GLU A   3      25.429  -2.312  12.238  0.00  0.00    +0.244 C 
ATOM      2  N   PRO A   4      25.578  -2.218  13.570  0.00  0.00    -0.272 N 
ATOM      3  CA  PRO A   4      25.171  -3.335  14.430  0.00  0.00    +0.152 C 
ATOM      4  CB  PRO A   4      25.529  -2.857  15.836  0.00  0.00    +0.031 C 
ATOM      5  CG  PRO A   4      26.585  -1.816  15.622  0.00  0.00    +0.024 C 
ATOM      6  CD  PRO A   4      26.222  -1.139  14.337  0.00  0.00    +0.094 C 
ATOM      7  O   GLU A   3      24.925  -3.311  11.708  0.00  0.00    -0.273 OA
ENDROOT
BRANCH   3   8
ATOM      8  C   PRO A   4      23.681  -3.648  14.290  0.00  0.00    +0.241 C 
ATOM      9  O   PRO A   4      23.262  -4.804  14.420  0.00  0.00    -0.273 OA
ATOM     10  N   LYS A   5      22.886  -2.614  14.022  0.00  0.00    -0.297 N 
ATOM     11  H   LYS A   5      23.291  -1.656  13.990  0.00  0.00    +0.150 HD
BRANCH  10  12
ATOM     12  CA  LYS A   5      21.458  -2.795  13.772  0.00  0.00    +0.149 C 
BRANCH  12  13
ATOM     13  C   LYS A   5      21.197  -3.550  12.463  0.00  0.00    +0.241 C 
ATOM     14  O   LYS A   5      20.400  -4.484  12.432  0.00  0.00    -0.273 OA
ATOM     15  N   PHE A   6      21.872  -3.150  11.387  0.00  0.00    -0.298 N 
ATOM     16  H   PHE A   6      22.489  -2.316  11.452  0.00  0.00    +0.150 HD
BRANCH  15  17
ATOM     17  CA  PHE A   6      21.761  -3.863  10.115  0.00  0.00    +0.141 C 
BRANCH  17  18
ATOM     18  C   PHE A   6      22.139  -5.334  10.253  0.00  0.00    +0.227 C 
ATOM     19  O   PHE A   6      21.570  -6.197   9.579  0.00  0.00    -0.286 OA
ENDBRANCH  17  18
BRANCH  17  20
ATOM     20  CB  PHE A   6      22.669  -3.230   9.069  0.00  0.00    +0.054 C 
BRANCH  20  21
ATOM     21  CG  PHE A   6      22.083  -2.020   8.407  0.00  0.00    -0.020 A 
ATOM     22  CD2 PHE A   6      22.649  -0.768   8.594  0.00  0.00    -0.004 A 
ATOM     23  CE2 PHE A   6      22.127   0.345   7.953  0.00  0.00    -0.000 A 
ATOM     24  CZ  PHE A   6      21.027   0.211   7.122  0.00  0.00    -0.000 A 
ATOM     25  CE1 PHE A   6      20.458  -1.025   6.932  0.00  0.00    -0.000 A 
ATOM     26  CD1 PHE A   6      20.983  -2.138   7.572  0.00  0.00    -0.004 A 
ENDBRANCH  20  21
ENDBRANCH  17  20
ENDBRANCH  15  17
ENDBRANCH  12  13
BRANCH  12  27
ATOM     27  CB  LYS A   5      20.750  -1.438  13.737  0.00  0.00    +0.029 C 
BRANCH  27  28
ATOM     28  CG  LYS A   5      20.660  -0.737  15.091  0.00  0.00    +0.000 C 
BRANCH  28  29
ATOM     29  CD  LYS A   5      22.025  -0.314  15.610  0.00  0.00    -0.024 C 
BRANCH  29  30
ATOM     30  CE  LYS A   5      21.901   0.910  16.515  0.00  0.00    -0.086 C 
BRANCH  30  31
ATOM     31  NZ  LYS A   5      23.152   1.182  17.303  0.00  0.00    +0.380 N 
ATOM     32  HZ1 LYS A   5      23.366   0.362  17.905  0.00  0.00    -0.089 HD
ATOM     33  HZ2 LYS A   5      23.009   2.023  17.898  0.00  0.00    -0.089 HD
ATOM     34  HZ3 LYS A   5      23.943   1.349  16.649  0.00  0.00    -0.089 HD
ENDBRANCH  30  31
ENDBRANCH  29  30
ENDBRANCH  28  29
ENDBRANCH  27  28
ENDBRANCH  12  27
ENDBRANCH  10  12
ENDBRANCH   3   8
BRANCH   1  35
ATOM     35  CA  GLU A   3      25.935  -1.144  11.385  0.00  0.00    +0.149 C 
BRANCH  35  38
ATOM     36  C   MET A   2      24.232   0.481  12.102  0.00  0.00    +0.241 C 
ATOM     37  O   MET A   2      23.340  -0.366  12.118  0.00  0.00    -0.273 OA
ATOM     38  N   GLU A   3      25.506   0.187  11.837  0.00  0.00    -0.297 N 
ATOM     39  H   GLU A   3      26.225   0.930  11.955  0.00  0.00    +0.150 HD
BRANCH  36  40
ATOM     40  CA  MET A   2      23.900   1.944  12.410  0.00  0.00    +0.149 C 
BRANCH  40  43
ATOM     41  C   PHE A   1      25.374   2.867  14.108  0.00  0.00    +0.239 C 
ATOM     42  O   PHE A   1      24.738   2.323  15.010  0.00  0.00    -0.274 OA
ATOM     43  N   MET A   2      25.061   2.726  12.820  0.00  0.00    -0.297 N 
ATOM     44  H   MET A   2      25.654   3.181  12.096  0.00  0.00    +0.150 HD
BRANCH  41  45
ATOM     45  CA  PHE A   1      26.582   3.746  14.438  0.00  0.00    +0.149 C 
BRANCH  45  46
ATOM     46  N   PHE A   1      27.757   3.386  13.666  0.00  0.00    -0.238 NA
ATOM     47  H   PHE A   1      28.076   4.026  12.911  0.00  0.00    +0.142 HD
ENDBRANCH  45  46
BRANCH  45  48
ATOM     48  CB  PHE A   1      26.261   5.222  14.189  0.00  0.00    +0.053 C 
BRANCH  48  49
ATOM     49  CG  PHE A   1      24.860   5.606  14.526  0.00  0.00    -0.020 A 
ATOM     50  CD2 PHE A   1      24.344   5.365  15.785  0.00  0.00    -0.004 A 
ATOM     51  CE2 PHE A   1      23.052   5.738  16.099  0.00  0.00    -0.000 A 
ATOM     52  CZ  PHE A   1      22.262   6.358  15.147  0.00  0.00    -0.000 A 
ATOM     53  CE1 PHE A   1      22.768   6.602  13.885  0.00  0.00    -0.000 A 
ATOM     54  CD1 PHE A   1      24.060   6.227  13.580  0.00  0.00    -0.004 A 
ENDBRANCH  48  49
ENDBRANCH  45  48
ENDBRANCH  41  45
ENDBRANCH  40  43
BRANCH  40  55
ATOM     55  CB  MET A   2      23.217   2.588  11.193  0.00  0.00    +0.041 C 
BRANCH  55  56
ATOM     56  CG  MET A   2      22.423   3.854  11.510  0.00  0.00    +0.060 C 
BRANCH  56  57
ATOM     57  SD  MET A   2      20.928   3.599  12.543  0.00  0.00    -0.139 S 
ATOM     58  CE  MET A   2      19.816   2.920  11.366  0.00  0.00    +0.069 C 
ENDBRANCH  56  57
ENDBRANCH  55  56
ENDBRANCH  40  55
ENDBRANCH  36  40
ENDBRANCH  35  38
BRANCH  35  59
ATOM     59  CB  GLU A   3      27.462  -1.215  11.328  0.00  0.00    +0.041 C 
BRANCH  59  60
ATOM     60  CG  GLU A   3      28.056  -1.360   9.938  0.00  0.00    +0.116 C 
BRANCH  60  61
ATOM     61  CD  GLU A   3      27.236  -2.253   9.032  0.00  0.00    +0.365 C 
ATOM     62  OE2 GLU A   3      27.484  -3.476   9.014  0.00  0.00    -0.246 OA
ATOM     63  OE1 GLU A   3      26.343  -1.728   8.333  0.00  0.00    -0.246 OA
ENDBRANCH  60  61
ENDBRANCH  59  60
ENDBRANCH  35  59
ENDBRANCH   1  35
TORSDOF 26
REMARK  Name = ../refined-set-2016/2p4y/2p4y_pocket.pdb
REMARK  273 active torsions:
REMARK  status: ('A' for Active; 'I' for Inactive)
REMARK    1  A    between atoms: _1  and  _3
REMARK    2  A    between atoms: _3  and  _4
REMARK    3  A    between atoms: _3  and  _6
REMARK    4  A    between atoms: _6  and  _7
REMARK    5  A    between atoms: _12  and  _13
REMARK    6  A    between atoms: _15  and  _17
REMARK    7  A    between atoms: _17  and  _18
REMARK    8  A    between atoms: _17  and  _20
REMARK    9  A    between atoms: _20  and  _21
REMARK   10  A    between atoms: _23  and  _25
REMARK   11  A    between atoms: _25  and  _26
REMARK   12  A    between atoms: _25  and  _28
REMARK   13  A    between atoms: _28  and  _29
REMARK   14  A    between atoms: _36  and  _37
REMARK   15  A    between atoms: _42  and  _44
REMARK   16  A    between atoms: _44  and  _45
REMARK   17  A    between atoms: _44  and  _47
REMARK   18  A    between atoms: _47  and  _48
REMARK   19  A    between atoms: _51  and  _53
REMARK   20  A    between atoms: _53  and  _54
REMARK   21  A    between atoms: _53  and  _56
REMARK   22  A    between atoms: _56  and  _57
REMARK   23  A    between atoms: _60  and  _62
REMARK   24  A    between atoms: _62  and  _63
REMARK   25  A    between atoms: _62  and  _65
REMARK   26  A    between atoms: _65  and  _66
REMARK   27  A    between atoms: _69  and  _71
REMARK   28  A    between atoms: _71  and  _72
REMARK   29  A    between atoms: _71  and  _74
REMARK   30  A    between atoms: _74  and  _75
REMARK   31  A    between atoms: _75  and  _76
REMARK   32  A    between atoms: _76  and  _77
REMARK   33  A    between atoms: _86  and  _88
REMARK   34  A    between atoms: _88  and  _89
REMARK   35  A    between atoms: _88  and  _91
REMARK   36  A    between atoms: _91  and  _92
REMARK   37  A    between atoms: _95  and  _97
REMARK   38  A    between atoms: _97  and  _98
REMARK   39  A    between atoms: _97  and  _100
REMARK   40  A    between atoms: _100  and  _101
REMARK   41  A    between atoms: _107  and  _109
REMARK   42  A    between atoms: _109  and  _110
REMARK   43  A    between atoms: _109  and  _112
REMARK   44  A    between atoms: _112  and  _113
REMARK   45  A    between atoms: _113  and  _114
REMARK   46  A    between atoms: _119  and  _121
REMARK   47  A    between atoms: _121  and  _122
REMARK   48  A    between atoms: _124  and  _126
REMARK   49  A    between atoms: _126  and  _127
REMARK   50  A    between atoms: _126  and  _129
REMARK   51  A    between atoms: _131  and  _133
REMARK   52  A    between atoms: _133  and  _134
REMARK   53  A    between atoms: _133  and  _136
REMARK   54  A    between atoms: _136  and  _137
REMARK   55  A    between atoms: _137  and  _138
REMARK   56  A    between atoms: _143  and  _145
REMARK   57  A    between atoms: _145  and  _146
REMARK   58  A    between atoms: _145  and  _148
REMARK   59  A    between atoms: _148  and  _149
REMARK   60  A    between atoms: _155  and  _157
REMARK   61  A    between atoms: _157  and  _158
REMARK   62  A    between atoms: _157  and  _160
REMARK   63  A    between atoms: _160  and  _161
REMARK   64  A    between atoms: _161  and  _162
REMARK   65  A    between atoms: _162  and  _163
REMARK   66  A    between atoms: _172  and  _174
REMARK   67  A    between atoms: _174  and  _175
REMARK   68  A    between atoms: _174  and  _177
REMARK   69  A    between atoms: _177  and  _178
REMARK   70  A    between atoms: _180  and  _182
REMARK   71  A    between atoms: _182  and  _183
REMARK   72  A    between atoms: _182  and  _185
REMARK   73  A    between atoms: _188  and  _190
REMARK   74  A    between atoms: _190  and  _191
REMARK   75  A    between atoms: _190  and  _193
REMARK   76  A    between atoms: _193  and  _194
REMARK   77  A    between atoms: _194  and  _195
REMARK   78  A    between atoms: _198  and  _200
REMARK   79  A    between atoms: _200  and  _201
REMARK   80  A    between atoms: _204  and  _206
REMARK   81  A    between atoms: _206  and  _207
REMARK   82  A    between atoms: _206  and  _209
REMARK   83  A    between atoms: _212  and  _214
REMARK   84  A    between atoms: _214  and  _215
REMARK   85  A    between atoms: _214  and  _217
REMARK   86  A    between atoms: _217  and  _218
REMARK   87  A    between atoms: _218  and  _219
REMARK   88  A    between atoms: _224  and  _226
REMARK   89  A    between atoms: _226  and  _227
REMARK   90  A    between atoms: _226  and  _229
REMARK   91  A    between atoms: _229  and  _230
REMARK   92  A    between atoms: _230  and  _231
REMARK   93  A    between atoms: _234  and  _236
REMARK   94  A    between atoms: _236  and  _237
REMARK   95  A    between atoms: _236  and  _239
REMARK   96  A    between atoms: _239  and  _240
REMARK   97  A    between atoms: _243  and  _245
REMARK   98  A    between atoms: _245  and  _246
REMARK   99  A    between atoms: _245  and  _248
REMARK  100  A    between atoms: _248  and  _249
REMARK  101  A    between atoms: _252  and  _254
REMARK  102  A    between atoms: _254  and  _255
REMARK  103  A    between atoms: _254  and  _257
REMARK  104  A    between atoms: _257  and  _258
REMARK  105  A    between atoms: _263  and  _264
REMARK  106  A    between atoms: _266  and  _268
REMARK  107  A    between atoms: _268  and  _269
REMARK  108  A    between atoms: _268  and  _271
REMARK  109  A    between atoms: _274  and  _276
REMARK  110  A    between atoms: _276  and  _277
REMARK  111  A    between atoms: _276  and  _279
REMARK  112  A    between atoms: _279  and  _280
REMARK  113  A    between atoms: _285  and  _287
REMARK  114  A    between atoms: _287  and  _288
REMARK  115  A    between atoms: _287  and  _290
REMARK  116  A    between atoms: _290  and  _291
REMARK  117  A    between atoms: _294  and  _296
REMARK  118  A    between atoms: _296  and  _297
REMARK  119  A    between atoms: _296  and  _299
REMARK  120  A    between atoms: _299  and  _300
REMARK  121  A    between atoms: _303  and  _305
REMARK  122  A    between atoms: _305  and  _306
REMARK  123  A    between atoms: _305  and  _308
REMARK  124  A    between atoms: _308  and  _309
REMARK  125  A    between atoms: _314  and  _315
REMARK  126  A    between atoms: _317  and  _319
REMARK  127  A    between atoms: _319  and  _320
REMARK  128  A    between atoms: _319  and  _322
REMARK  129  A    between atoms: _322  and  _323
REMARK  130  A    between atoms: _326  and  _328
REMARK  131  A    between atoms: _328  and  _329
REMARK  132  A    between atoms: _328  and  _331
REMARK  133  A    between atoms: _331  and  _332
REMARK  134  A    between atoms: _332  and  _333
REMARK  135  A    between atoms: _335  and  _337
REMARK  136  A    between atoms: _337  and  _338
REMARK  137  A    between atoms: _337  and  _340
REMARK  138  A    between atoms: _340  and  _341
REMARK  139  A    between atoms: _344  and  _346
REMARK  140  A    between atoms: _346  and  _347
REMARK  141  A    between atoms: _350  and  _352
REMARK  142  A    between atoms: _352  and  _353
REMARK  143  A    between atoms: _352  and  _355
REMARK  144  A    between atoms: _355  and  _356
REMARK  145  A    between atoms: _358  and  _360
REMARK  146  A    between atoms: _360  and  _361
REMARK  147  A    between atoms: _360  and  _363
REMARK  148  A    between atoms: _363  and  _364
REMARK  149  A    between atoms: _367  and  _369
REMARK  150  A    between atoms: _369  and  _370
REMARK  151  A    between atoms: _369  and  _372
REMARK  152  A    between atoms: _372  and  _373
REMARK  153  A    between atoms: _373  and  _374
REMARK  154  A    between atoms: _376  and  _378
REMARK  155  A    between atoms: _378  and  _379
REMARK  156  A    between atoms: _381  and  _383
REMARK  157  A    between atoms: _383  and  _384
REMARK  158  A    between atoms: _383  and  _386
REMARK  159  A    between atoms: _389  and  _391
REMARK  160  A    between atoms: _391  and  _392
REMARK  161  A    between atoms: _391  and  _394
REMARK  162  A    between atoms: _394  and  _395
REMARK  163  A    between atoms: _398  and  _400
REMARK  164  A    between atoms: _400  and  _401
REMARK  165  A    between atoms: _400  and  _403
REMARK  166  A    between atoms: _403  and  _404
REMARK  167  A    between atoms: _407  and  _409
REMARK  168  A    between atoms: _409  and  _410
REMARK  169  A    between atoms: _409  and  _412
REMARK  170  A    between atoms: _412  and  _413
REMARK  171  A    between atoms: _415  and  _417
REMARK  172  A    between atoms: _417  and  _418
REMARK  173  A    between atoms: _417  and  _420
REMARK  174  A    between atoms: _420  and  _421
REMARK  175  A    between atoms: _421  and  _422
REMARK  176  A    between atoms: _425  and  _427
REMARK  177  A    between atoms: _427  and  _428
REMARK  178  A    between atoms: _430  and  _432
REMARK  179  A    between atoms: _432  and  _433
REMARK  180  A    between atoms: _432  and  _435
REMARK  181  A    between atoms: _435  and  _436
REMARK  182  A    between atoms: _436  and  _437
REMARK  183  A    between atoms: _442  and  _444
REMARK  184  A    between atoms: _444  and  _445
REMARK  185  A    between atoms: _447  and  _449
REMARK  186  A    between atoms: _449  and  _450
REMARK  187  A    between atoms: _449  and  _452
REMARK  188  A    between atoms: _452  and  _453
REMARK  189  A    between atoms: _459  and  _461
REMARK  190  A    between atoms: _461  and  _462
REMARK  191  A    between atoms: _461  and  _464
REMARK  192  A    between atoms: _464  and  _465
REMARK  193  A    between atoms: _465  and  _466
REMARK  194  A    between atoms: _468  and  _470
REMARK  195  A    between atoms: _470  and  _471
REMARK  196  A    between atoms: _470  and  _473
REMARK  197  A    between atoms: _473  and  _474
REMARK  198  A    between atoms: _477  and  _479
REMARK  199  A    between atoms: _479  and  _480
REMARK  200  A    between atoms: _479  and  _482
REMARK  201  A    between atoms: _482  and  _483
REMARK  202  A    between atoms: _483  and  _484
REMARK  203  A    between atoms: _484  and  _485
REMARK  204  A    between atoms: _494  and  _496
REMARK  205  A    between atoms: _496  and  _497
REMARK  206  A    between atoms: _496  and  _499
REMARK  207  A    between atoms: _499  and  _500
REMARK  208  A    between atoms: _506  and  _508
REMARK  209  A    between atoms: _508  and  _509
REMARK  210  A    between atoms: _508  and  _511
REMARK  211  A    between atoms: _511  and  _512
REMARK  212  A    between atoms: _515  and  _517
REMARK  213  A    between atoms: _517  and  _518
REMARK  214  A    between atoms: _517  and  _520
REMARK  215  A    between atoms: _520  and  _521
REMARK  216  A    between atoms: _524  and  _526
REMARK  217  A    between atoms: _526  and  _527
REMARK  218  A    between atoms: _526  and  _529
REMARK  219  A    between atoms: _529  and  _530
REMARK  220  A    between atoms: _536  and  _538
REMARK  221  A    between atoms: _538  and  _539
REMARK  222  A    between atoms: _538  and  _541
REMARK  223  A    between atoms: _541  and  _542
REMARK  224  A    between atoms: _542  and  _543
REMARK  225  A    between atoms: _545  and  _547
REMARK  226  A    between atoms: _547  and  _548
REMARK  227  A    between atoms: _547  and  _550
REMARK  228  A    between atoms: _550  and  _551
REMARK  229  A    between atoms: _551  and  _552
REMARK  230  A    between atoms: _556  and  _557
REMARK  231  A    between atoms: _562  and  _564
REMARK  232  A    between atoms: _564  and  _565
REMARK  233  A    between atoms: _564  and  _567
REMARK  234  A    between atoms: _567  and  _568
REMARK  235  A    between atoms: _568  and  _569
REMARK  236  A    between atoms: _569  and  _570
REMARK  237  A    between atoms: _570  and  _571
REMARK  238  A    between atoms: _575  and  _577
REMARK  239  A    between atoms: _577  and  _578
REMARK  240  A    between atoms: _577  and  _580
REMARK  241  A    between atoms: _580  and  _581
REMARK  242  A    between atoms: _587  and  _589
REMARK  243  A    between atoms: _589  and  _590
REMARK  244  A    between atoms: _589  and  _592
REMARK  245  A    between atoms: _592  and  _593
REMARK  246  A    between atoms: _596  and  _598
REMARK  247  A    between atoms: _598  and  _599
REMARK  248  A    between atoms: _598  and  _601
REMARK  249  A    between atoms: _601  and  _602
REMARK  250  A    between atoms: _605  and  _607
REMARK  251  A    between atoms: _607  and  _608
REMARK  252  A    between atoms: _607  and  _610
REMARK  253  A    between atoms: _613  and  _615
REMARK  254  A    between atoms: _615  and  _616
REMARK  255  A    between atoms: _615  and  _618
REMARK  256  A    between atoms: _618  and  _619
REMARK  257  A    between atoms: _624  and  _626
REMARK  258  A    between atoms: _626  and  _627
REMARK  259  A    between atoms: _626  and  _629
REMARK  260  A    between atoms: _629  and  _630
REMARK  261  A    between atoms: _633  and  _635
REMARK  262  A    between atoms: _635  and  _636
REMARK  263  A    between atoms: _635  and  _638
REMARK  264  A    between atoms: _638  and  _639
REMARK  265  A    between atoms: _642  and  _644
REMARK  266  A    between atoms: _644  and  _645
REMARK  267  A    between atoms: _644  and  _647
REMARK  268  A    between atoms: _647  and  _648
REMARK  269  A    between atoms: _651  and  _653
REMARK  270  A    between atoms: _653  and  _654
REMARK  271  A    between atoms: _653  and  _656
REMARK  272  A    between atoms: _656  and  _657
REMARK  273  A    between atoms: _662  and  _663
REMARK                            x       y       z     vdW  Elec       q    Type
REMARK                         _______ _______ _______ _____ _____    ______ ____
ROOT
ATOM      1  CA  ILE A   1       7.417  -6.790  21.654  0.00  0.00    +0.133 C 
ENDROOT
BRANCH   1   2
ATOM      2  N   ILE A   1       6.963  -8.019  21.017  0.00  0.00    -0.239 NA
ATOM      3  H   ILE A   1       6.369  -7.975  20.165  0.00  0.00    +0.142 HD
ENDBRANCH   1   2
BRANCH   1   4
ATOM      4  C   ILE A   1       6.740  -6.617  23.008  0.00  0.00    +0.224 C 
ATOM      5  O   ILE A   1       7.334  -6.076  23.944  0.00  0.00    -0.287 OA
ENDBRANCH   1   4
BRANCH   1   6
ATOM      6  CB  ILE A   1       7.161  -5.532  20.764  0.00  0.00    +0.023 C 
ATOM      7  CG2 ILE A   1       7.904  -5.669  19.433  0.00  0.00    +0.002 C 
BRANCH   6   8
ATOM      8  CG1 ILE A   1       5.673  -5.332  20.501  0.00  0.00    +0.002 C 
ATOM      9  CD1 ILE A   1       5.393  -4.128  19.598  0.00  0.00    +0.000 C 
ENDBRANCH   6   8
ENDBRANCH   1   6
TORSDOF 4
REMARK  Name = ../refined-set-2016/2p4y/2p4y_pocket.pdb
REMARK  273 active torsions:
REMARK  status: ('A' for Active; 'I' for Inactive)
REMARK    1  A    between atoms: _1  and  _3
REMARK    2  A    between atoms: _3  and  _4
REMARK    3  A    between atoms: _3  and  _6
REMARK    4  A    between atoms: _6  and  _7
REMARK    5  A    between atoms: _12  and  _13
REMARK    6  A    between atoms: _15  and  _17
REMARK    7  A    between atoms: _17  and  _18
REMARK    8  A    between atoms: _17  and  _20
REMARK    9  A    between atoms: _20  and  _21
REMARK   10  A    between atoms: _23  and  _25
REMARK   11  A    between atoms: _25  and  _26
REMARK   12  A    between atoms: _25  and  _28
REMARK   13  A    between atoms: _28  and  _29
REMARK   14  A    between atoms: _36  and  _37
REMARK   15  A    between atoms: _42  and  _44
REMARK   16  A    between atoms: _44  and  _45
REMARK   17  A    between atoms: _44  and  _47
REMARK   18  A    between atoms: _47  and  _48
REMARK   19  A    between atoms: _51  and  _53
REMARK   20  A    between atoms: _53  and  _54
REMARK   21  A    between atoms: _53  and  _56
REMARK   22  A    between atoms: _56  and  _57
REMARK   23  A    between atoms: _60  and  _62
REMARK   24  A    between atoms: _62  and  _63
REMARK   25  A    between atoms: _62  and  _65
REMARK   26  A    between atoms: _65  and  _66
REMARK   27  A    between atoms: _69  and  _71
REMARK   28  A    between atoms: _71  and  _72
REMARK   29  A    between atoms: _71  and  _74
REMARK   30  A    between atoms: _74  and  _75
REMARK   31  A    between atoms: _75  and  _76
REMARK   32  A    between atoms: _76  and  _77
REMARK   33  A    between atoms: _86  and  _88
REMARK   34  A    between atoms: _88  and  _89
REMARK   35  A    between atoms: _88  and  _91
REMARK   36  A    between atoms: _91  and  _92
REMARK   37  A    between atoms: _95  and  _97
REMARK   38  A    between atoms: _97  and  _98
REMARK   39  A    between atoms: _97  and  _100
REMARK   40  A    between atoms: _100  and  _101
REMARK   41  A    between atoms: _107  and  _109
REMARK   42  A    between atoms: _109  and  _110
REMARK   43  A    between atoms: _109  and  _112
REMARK   44  A    between atoms: _112  and  _113
REMARK   45  A    between atoms: _113  and  _114
REMARK   46  A    between atoms: _119  and  _121
REMARK   47  A    between atoms: _121  and  _122
REMARK   48  A    between atoms: _124  and  _126
REMARK   49  A    between atoms: _126  and  _127
REMARK   50  A    between atoms: _126  and  _129
REMARK   51  A    between atoms: _131  and  _133
REMARK   52  A    between atoms: _133  and  _134
REMARK   53  A    between atoms: _133  and  _136
REMARK   54  A    between atoms: _136  and  _137
REMARK   55  A    between atoms: _137  and  _138
REMARK   56  A    between atoms: _143  and  _145
REMARK   57  A    between atoms: _145  and  _146
REMARK   58  A    between atoms: _145  and  _148
REMARK   59  A    between atoms: _148  and  _149
REMARK   60  A    between atoms: _155  and  _157
REMARK   61  A    between atoms: _157  and  _158
REMARK   62  A    between atoms: _157  and  _160
REMARK   63  A    between atoms: _160  and  _161
REMARK   64  A    between atoms: _161  and  _162
REMARK   65  A    between atoms: _162  and  _163
REMARK   66  A    between atoms: _172  and  _174
REMARK   67  A    between atoms: _174  and  _175
REMARK   68  A    between atoms: _174  and  _177
REMARK   69  A    between atoms: _177  and  _178
REMARK   70  A    between atoms: _180  and  _182
REMARK   71  A    between atoms: _182  and  _183
REMARK   72  A    between atoms: _182  and  _185
REMARK   73  A    between atoms: _188  and  _190
REMARK   74  A    between atoms: _190  and  _191
REMARK   75  A    between atoms: _190  and  _193
REMARK   76  A    between atoms: _193  and  _194
REMARK   77  A    between atoms: _194  and  _195
REMARK   78  A    between atoms: _198  and  _200
REMARK   79  A    between atoms: _200  and  _201
REMARK   80  A    between atoms: _204  and  _206
REMARK   81  A    between atoms: _206  and  _207
REMARK   82  A    between atoms: _206  and  _209
REMARK   83  A    between atoms: _212  and  _214
REMARK   84  A    between atoms: _214  and  _215
REMARK   85  A    between atoms: _214  and  _217
REMARK   86  A    between atoms: _217  and  _218
REMARK   87  A    between atoms: _218  and  _219
REMARK   88  A    between atoms: _224  and  _226
REMARK   89  A    between atoms: _226  and  _227
REMARK   90  A    between atoms: _226  and  _229
REMARK   91  A    between atoms: _229  and  _230
REMARK   92  A    between atoms: _230  and  _231
REMARK   93  A    between atoms: _234  and  _236
REMARK   94  A    between atoms: _236  and  _237
REMARK   95  A    between atoms: _236  and  _239
REMARK   96  A    between atoms: _239  and  _240
REMARK   97  A    between atoms: _243  and  _245
REMARK   98  A    between atoms: _245  and  _246
REMARK   99  A    between atoms: _245  and  _248
REMARK  100  A    between atoms: _248  and  _249
REMARK  101  A    between atoms: _252  and  _254
REMARK  102  A    between atoms: _254  and  _255
REMARK  103  A    between atoms: _254  and  _257
REMARK  104  A    between atoms: _257  and  _258
REMARK  105  A    between atoms: _263  and  _264
REMARK  106  A    between atoms: _266  and  _268
REMARK  107  A    between atoms: _268  and  _269
REMARK  108  A    between atoms: _268  and  _271
REMARK  109  A    between atoms: _274  and  _276
REMARK  110  A    between atoms: _276  and  _277
REMARK  111  A    between atoms: _276  and  _279
REMARK  112  A    between atoms: _279  and  _280
REMARK  113  A    between atoms: _285  and  _287
REMARK  114  A    between atoms: _287  and  _288
REMARK  115  A    between atoms: _287  and  _290
REMARK  116  A    between atoms: _290  and  _291
REMARK  117  A    between atoms: _294  and  _296
REMARK  118  A    between atoms: _296  and  _297
REMARK  119  A    between atoms: _296  and  _299
REMARK  120  A    between atoms: _299  and  _300
REMARK  121  A    between atoms: _303  and  _305
REMARK  122  A    between atoms: _305  and  _306
REMARK  123  A    between atoms: _305  and  _308
REMARK  124  A    between atoms: _308  and  _309
REMARK  125  A    between atoms: _314  and  _315
REMARK  126  A    between atoms: _317  and  _319
REMARK  127  A    between atoms: _319  and  _320
REMARK  128  A    between atoms: _319  and  _322
REMARK  129  A    between atoms: _322  and  _323
REMARK  130  A    between atoms: _326  and  _328
REMARK  131  A    between atoms: _328  and  _329
REMARK  132  A    between atoms: _328  and  _331
REMARK  133  A    between atoms: _331  and  _332
REMARK  134  A    between atoms: _332  and  _333
REMARK  135  A    between atoms: _335  and  _337
REMARK  136  A    between atoms: _337  and  _338
REMARK  137  A    between atoms: _337  and  _340
REMARK  138  A    between atoms: _340  and  _341
REMARK  139  A    between atoms: _344  and  _346
REMARK  140  A    between atoms: _346  and  _347
REMARK  141  A    between atoms: _350  and  _352
REMARK  142  A    between atoms: _352  and  _353
REMARK  143  A    between atoms: _352  and  _355
REMARK  144  A    between atoms: _355  and  _356
REMARK  145  A    between atoms: _358  and  _360
REMARK  146  A    between atoms: _360  and  _361
REMARK  147  A    between atoms: _360  and  _363
REMARK  148  A    between atoms: _363  and  _364
REMARK  149  A    between atoms: _367  and  _369
REMARK  150  A    between atoms: _369  and  _370
REMARK  151  A    between atoms: _369  and  _372
REMARK  152  A    between atoms: _372  and  _373
REMARK  153  A    between atoms: _373  and  _374
REMARK  154  A    between atoms: _376  and  _378
REMARK  155  A    between atoms: _378  and  _379
REMARK  156  A    between atoms: _381  and  _383
REMARK  157  A    between atoms: _383  and  _384
REMARK  158  A    between atoms: _383  and  _386
REMARK  159  A    between atoms: _389  and  _391
REMARK  160  A    between atoms: _391  and  _392
REMARK  161  A    between atoms: _391  and  _394
REMARK  162  A    between atoms: _394  and  _395
REMARK  163  A    between atoms: _398  and  _400
REMARK  164  A    between atoms: _400  and  _401
REMARK  165  A    between atoms: _400  and  _403
REMARK  166  A    between atoms: _403  and  _404
REMARK  167  A    between atoms: _407  and  _409
REMARK  168  A    between atoms: _409  and  _410
REMARK  169  A    between atoms: _409  and  _412
REMARK  170  A    between atoms: _412  and  _413
REMARK  171  A    between atoms: _415  and  _417
REMARK  172  A    between atoms: _417  and  _418
REMARK  173  A    between atoms: _417  and  _420
REMARK  174  A    between atoms: _420  and  _421
REMARK  175  A    between atoms: _421  and  _422
REMARK  176  A    between atoms: _425  and  _427
REMARK  177  A    between atoms: _427  and  _428
REMARK  178  A    between atoms: _430  and  _432
REMARK  179  A    between atoms: _432  and  _433
REMARK  180  A    between atoms: _432  and  _435
REMARK  181  A    between atoms: _435  and  _436
REMARK  182  A    between atoms: _436  and  _437
REMARK  183  A    between atoms: _442  and  _444
REMARK  184  A    between atoms: _444  and  _445
REMARK  185  A    between atoms: _447  and  _449
REMARK  186  A    between atoms: _449  and  _450
REMARK  187  A    between atoms: _449  and  _452
REMARK  188  A    between atoms: _452  and  _453
REMARK  189  A    between atoms: _459  and  _461
REMARK  190  A    between atoms: _461  and  _462
REMARK  191  A    between atoms: _461  and  _464
REMARK  192  A    between atoms: _464  and  _465
REMARK  193  A    between atoms: _465  and  _466
REMARK  194  A    between atoms: _468  and  _470
REMARK  195  A    between atoms: _470  and  _471
REMARK  196  A    between atoms: _470  and  _473
REMARK  197  A    between atoms: _473  and  _474
REMARK  198  A    between atoms: _477  and  _479
REMARK  199  A    between atoms: _479  and  _480
REMARK  200  A    between atoms: _479  and  _482
REMARK  201  A    between atoms: _482  and  _483
REMARK  202  A    between atoms: _483  and  _484
REMARK  203  A    between atoms: _484  and  _485
REMARK  204  A    between atoms: _494  and  _496
REMARK  205  A    between atoms: _496  and  _497
REMARK  206  A    between atoms: _496  and  _499
REMARK  207  A    between atoms: _499  and  _500
REMARK  208  A    between atoms: _506  and  _508
REMARK  209  A    between atoms: _508  and  _509
REMARK  210  A    between atoms: _508  and  _511
REMARK  211  A    between atoms: _511  and  _512
REMARK  212  A    between atoms: _515  and  _517
REMARK  213  A    between atoms: _517  and  _518
REMARK  214  A    between atoms: _517  and  _520
REMARK  215  A    between atoms: _520  and  _521
REMARK  216  A    between atoms: _524  and  _526
REMARK  217  A    between atoms: _526  and  _527
REMARK  218  A    between atoms: _526  and  _529
REMARK  219  A    between atoms: _529  and  _530
REMARK  220  A    between atoms: _536  and  _538
REMARK  221  A    between atoms: _538  and  _539
REMARK  222  A    between atoms: _538  and  _541
REMARK  223  A    between atoms: _541  and  _542
REMARK  224  A    between atoms: _542  and  _543
REMARK  225  A    between atoms: _545  and  _547
REMARK  226  A    between atoms: _547  and  _548
REMARK  227  A    between atoms: _547  and  _550
REMARK  228  A    between atoms: _550  and  _551
REMARK  229  A    between atoms: _551  and  _552
REMARK  230  A    between atoms: _556  and  _557
REMARK  231  A    between atoms: _562  and  _564
REMARK  232  A    between atoms: _564  and  _565
REMARK  233  A    between atoms: _564  and  _567
REMARK  234  A    between atoms: _567  and  _568
REMARK  235  A    between atoms: _568  and  _569
REMARK  236  A    between atoms: _569  and  _570
REMARK  237  A    between atoms: _570  and  _571
REMARK  238  A    between atoms: _575  and  _577
REMARK  239  A    between atoms: _577  and  _578
REMARK  240  A    between atoms: _577  and  _580
REMARK  241  A    between atoms: _580  and  _581
REMARK  242  A    between atoms: _587  and  _589
REMARK  243  A    between atoms: _589  and  _590
REMARK  244  A    between atoms: _589  and  _592
REMARK  245  A    between atoms: _592  and  _593
REMARK  246  A    between atoms: _596  and  _598
REMARK  247  A    between atoms: _598  and  _599
REMARK  248  A    between atoms: _598  and  _601
REMARK  249  A    between atoms: _601  and  _602
REMARK  250  A    between atoms: _605  and  _607
REMARK  251  A    between atoms: _607  and  _608
REMARK  252  A    between atoms: _607  and  _610
REMARK  253  A    between atoms: _613  and  _615
REMARK  254  A    between atoms: _615  and  _616
REMARK  255  A    between atoms: _615  and  _618
REMARK  256  A    between atoms: _618  and  _619
REMARK  257  A    between atoms: _624  and  _626
REMARK  258  A    between atoms: _626  and  _627
REMARK  259  A    between atoms: _626  and  _629
REMARK  260  A    between atoms: _629  and  _630
REMARK  261  A    between atoms: _633  and  _635
REMARK  262  A    between atoms: _635  and  _636
REMARK  263  A    between atoms: _635  and  _638
REMARK  264  A    between atoms: _638  and  _639
REMARK  265  A    between atoms: _642  and  _644
REMARK  266  A    between atoms: _644  and  _645
REMARK  267  A    between atoms: _644  and  _647
REMARK  268  A    between atoms: _647  and  _648
REMARK  269  A    between atoms: _651  and  _653
REMARK  270  A    between atoms: _653  and  _654
REMARK  271  A    between atoms: _653  and  _656
REMARK  272  A    between atoms: _656  and  _657
REMARK  273  A    between atoms: _662  and  _663
REMARK                            x       y       z     vdW  Elec       q    Type
REMARK                         _______ _______ _______ _____ _____    ______ ____
ROOT
ATOM      1  C   ILE A   1      22.724  -2.764  21.449  0.00  0.00    +0.238 C 
ATOM      2  N   VAL A   2      21.850  -2.822  22.449  0.00  0.00    -0.298 N 
ATOM      3  H   VAL A   2      21.357  -3.713  22.661  0.00  0.00    +0.150 HD
ATOM      4  O   ILE A   1      23.419  -1.780  21.243  0.00  0.00    -0.274 OA
ENDROOT
BRANCH   1   5
ATOM      5  CA  ILE A   1      22.839  -3.984  20.545  0.00  0.00    +0.145 C 
BRANCH   5   6
ATOM      6  N   ILE A   1      22.920  -5.205  21.327  0.00  0.00    -0.238 NA
ATOM      7  H   ILE A   1      22.174  -5.925  21.247  0.00  0.00    +0.142 HD
ENDBRANCH   5   6
BRANCH   5   8
ATOM      8  CB  ILE A   1      21.628  -3.975  19.597  0.00  0.00    +0.025 C 
ATOM      9  CG2 ILE A   1      21.563  -2.645  18.854  0.00  0.00    +0.002 C 
BRANCH   8  10
ATOM     10  CG1 ILE A   1      21.744  -5.094  18.570  0.00  0.00    +0.002 C 
ATOM     11  CD1 ILE A   1      20.641  -5.038  17.541  0.00  0.00    +0.000 C 
ENDBRANCH   8  10
ENDBRANCH   5   8
ENDBRANCH   1   5
BRANCH   2  12
ATOM     12  CA  VAL A   2      21.586  -1.634  23.246  0.00  0.00    +0.137 C 
BRANCH  12  13
ATOM     13  CB  VAL A   2      20.327  -1.778  24.138  0.00  0.00    +0.026 C 
ATOM     14  CG2 VAL A   2      20.726  -1.971  25.586  0.00  0.00    +0.002 C 
ATOM     15  CG1 VAL A   2      19.446  -2.898  23.625  0.00  0.00    +0.002 C 
ENDBRANCH  12  13
BRANCH  12  16
ATOM     16  C   VAL A   2      22.771  -1.287  24.135  0.00  0.00    +0.227 C 
ATOM     17  O   VAL A   2      23.084  -0.115  24.315  0.00  0.00    -0.286 OA
ENDBRANCH  12  16
ENDBRANCH   2  12
TORSDOF 7
REMARK  Name = ../refined-set-2016/2p4y/2p4y_pocket.pdb
REMARK  273 active torsions:
REMARK  status: ('A' for Active; 'I' for Inactive)
REMARK    1  A    between atoms: _1  and  _3
REMARK    2  A    between atoms: _3  and  _4
REMARK    3  A    between atoms: _3  and  _6
REMARK    4  A    between atoms: _6  and  _7
REMARK    5  A    between atoms: _12  and  _13
REMARK    6  A    between atoms: _15  and  _17
REMARK    7  A    between atoms: _17  and  _18
REMARK    8  A    between atoms: _17  and  _20
REMARK    9  A    between atoms: _20  and  _21
REMARK   10  A    between atoms: _23  and  _25
REMARK   11  A    between atoms: _25  and  _26
REMARK   12  A    between atoms: _25  and  _28
REMARK   13  A    between atoms: _28  and  _29
REMARK   14  A    between atoms: _36  and  _37
REMARK   15  A    between atoms: _42  and  _44
REMARK   16  A    between atoms: _44  and  _45
REMARK   17  A    between atoms: _44  and  _47
REMARK   18  A    between atoms: _47  and  _48
REMARK   19  A    between atoms: _51  and  _53
REMARK   20  A    between atoms: _53  and  _54
REMARK   21  A    between atoms: _53  and  _56
REMARK   22  A    between atoms: _56  and  _57
REMARK   23  A    between atoms: _60  and  _62
REMARK   24  A    between atoms: _62  and  _63
REMARK   25  A    between atoms: _62  and  _65
REMARK   26  A    between atoms: _65  and  _66
REMARK   27  A    between atoms: _69  and  _71
REMARK   28  A    between atoms: _71  and  _72
REMARK   29  A    between atoms: _71  and  _74
REMARK   30  A    between atoms: _74  and  _75
REMARK   31  A    between atoms: _75  and  _76
REMARK   32  A    between atoms: _76  and  _77
REMARK   33  A    between atoms: _86  and  _88
REMARK   34  A    between atoms: _88  and  _89
REMARK   35  A    between atoms: _88  and  _91
REMARK   36  A    between atoms: _91  and  _92
REMARK   37  A    between atoms: _95  and  _97
REMARK   38  A    between atoms: _97  and  _98
REMARK   39  A    between atoms: _97  and  _100
REMARK   40  A    between atoms: _100  and  _101
REMARK   41  A    between atoms: _107  and  _109
REMARK   42  A    between atoms: _109  and  _110
REMARK   43  A    between atoms: _109  and  _112
REMARK   44  A    between atoms: _112  and  _113
REMARK   45  A    between atoms: _113  and  _114
REMARK   46  A    between atoms: _119  and  _121
REMARK   47  A    between atoms: _121  and  _122
REMARK   48  A    between atoms: _124  and  _126
REMARK   49  A    between atoms: _126  and  _127
REMARK   50  A    between atoms: _126  and  _129
REMARK   51  A    between atoms: _131  and  _133
REMARK   52  A    between atoms: _133  and  _134
REMARK   53  A    between atoms: _133  and  _136
REMARK   54  A    between atoms: _136  and  _137
REMARK   55  A    between atoms: _137  and  _138
REMARK   56  A    between atoms: _143  and  _145
REMARK   57  A    between atoms: _145  and  _146
REMARK   58  A    between atoms: _145  and  _148
REMARK   59  A    between atoms: _148  and  _149
REMARK   60  A    between atoms: _155  and  _157
REMARK   61  A    between atoms: _157  and  _158
REMARK   62  A    between atoms: _157  and  _160
REMARK   63  A    between atoms: _160  and  _161
REMARK   64  A    between atoms: _161  and  _162
REMARK   65  A    between atoms: _162  and  _163
REMARK   66  A    between atoms: _172  and  _174
REMARK   67  A    between atoms: _174  and  _175
REMARK   68  A    between atoms: _174  and  _177
REMARK   69  A    between atoms: _177  and  _178
REMARK   70  A    between atoms: _180  and  _182
REMARK   71  A    between atoms: _182  and  _183
REMARK   72  A    between atoms: _182  and  _185
REMARK   73  A    between atoms: _188  and  _190
REMARK   74  A    between atoms: _190  and  _191
REMARK   75  A    between atoms: _190  and  _193
REMARK   76  A    between atoms: _193  and  _194
REMARK   77  A    between atoms: _194  and  _195
REMARK   78  A    between atoms: _198  and  _200
REMARK   79  A    between atoms: _200  and  _201
REMARK   80  A    between atoms: _204  and  _206
REMARK   81  A    between atoms: _206  and  _207
REMARK   82  A    between atoms: _206  and  _209
REMARK   83  A    between atoms: _212  and  _214
REMARK   84  A    between atoms: _214  and  _215
REMARK   85  A    between atoms: _214  and  _217
REMARK   86  A    between atoms: _217  and  _218
REMARK   87  A    between atoms: _218  and  _219
REMARK   88  A    between atoms: _224  and  _226
REMARK   89  A    between atoms: _226  and  _227
REMARK   90  A    between atoms: _226  and  _229
REMARK   91  A    between atoms: _229  and  _230
REMARK   92  A    between atoms: _230  and  _231
REMARK   93  A    between atoms: _234  and  _236
REMARK   94  A    between atoms: _236  and  _237
REMARK   95  A    between atoms: _236  and  _239
REMARK   96  A    between atoms: _239  and  _240
REMARK   97  A    between atoms: _243  and  _245
REMARK   98  A    between atoms: _245  and  _246
REMARK   99  A    between atoms: _245  and  _248
REMARK  100  A    between atoms: _248  and  _249
REMARK  101  A    between atoms: _252  and  _254
REMARK  102  A    between atoms: _254  and  _255
REMARK  103  A    between atoms: _254  and  _257
REMARK  104  A    between atoms: _257  and  _258
REMARK  105  A    between atoms: _263  and  _264
REMARK  106  A    between atoms: _266  and  _268
REMARK  107  A    between atoms: _268  and  _269
REMARK  108  A    between atoms: _268  and  _271
REMARK  109  A    between atoms: _274  and  _276
REMARK  110  A    between atoms: _276  and  _277
REMARK  111  A    between atoms: _276  and  _279
REMARK  112  A    between atoms: _279  and  _280
REMARK  113  A    between atoms: _285  and  _287
REMARK  114  A    between atoms: _287  and  _288
REMARK  115  A    between atoms: _287  and  _290
REMARK  116  A    between atoms: _290  and  _291
REMARK  117  A    between atoms: _294  and  _296
REMARK  118  A    between atoms: _296  and  _297
REMARK  119  A    between atoms: _296  and  _299
REMARK  120  A    between atoms: _299  and  _300
REMARK  121  A    between atoms: _303  and  _305
REMARK  122  A    between atoms: _305  and  _306
REMARK  123  A    between atoms: _305  and  _308
REMARK  124  A    between atoms: _308  and  _309
REMARK  125  A    between atoms: _314  and  _315
REMARK  126  A    between atoms: _317  and  _319
REMARK  127  A    between atoms: _319  and  _320
REMARK  128  A    between atoms: _319  and  _322
REMARK  129  A    between atoms: _322  and  _323
REMARK  130  A    between atoms: _326  and  _328
REMARK  131  A    between atoms: _328  and  _329
REMARK  132  A    between atoms: _328  and  _331
REMARK  133  A    between atoms: _331  and  _332
REMARK  134  A    between atoms: _332  and  _333
REMARK  135  A    between atoms: _335  and  _337
REMARK  136  A    between atoms: _337  and  _338
REMARK  137  A    between atoms: _337  and  _340
REMARK  138  A    between atoms: _340  and  _341
REMARK  139  A    between atoms: _344  and  _346
REMARK  140  A    between atoms: _346  and  _347
REMARK  141  A    between atoms: _350  and  _352
REMARK  142  A    between atoms: _352  and  _353
REMARK  143  A    between atoms: _352  and  _355
REMARK  144  A    between atoms: _355  and  _356
REMARK  145  A    between atoms: _358  and  _360
REMARK  146  A    between atoms: _360  and  _361
REMARK  147  A    between atoms: _360  and  _363
REMARK  148  A    between atoms: _363  and  _364
REMARK  149  A    between atoms: _367  and  _369
REMARK  150  A    between atoms: _369  and  _370
REMARK  151  A    between atoms: _369  and  _372
REMARK  152  A    between atoms: _372  and  _373
REMARK  153  A    between atoms: _373  and  _374
REMARK  154  A    between atoms: _376  and  _378
REMARK  155  A    between atoms: _378  and  _379
REMARK  156  A    between atoms: _381  and  _383
REMARK  157  A    between atoms: _383  and  _384
REMARK  158  A    between atoms: _383  and  _386
REMARK  159  A    between atoms: _389  and  _391
REMARK  160  A    between atoms: _391  and  _392
REMARK  161  A    between atoms: _391  and  _394
REMARK  162  A    between atoms: _394  and  _395
REMARK  163  A    between atoms: _398  and  _400
REMARK  164  A    between atoms: _400  and  _401
REMARK  165  A    between atoms: _400  and  _403
REMARK  166  A    between atoms: _403  and  _404
REMARK  167  A    between atoms: _407  and  _409
REMARK  168  A    between atoms: _409  and  _410
REMARK  169  A    between atoms: _409  and  _412
REMARK  170  A    between atoms: _412  and  _413
REMARK  171  A    between atoms: _415  and  _417
REMARK  172  A    between atoms: _417  and  _418
REMARK  173  A    between atoms: _417  and  _420
REMARK  174  A    between atoms: _420  and  _421
REMARK  175  A    between atoms: _421  and  _422
REMARK  176  A    between atoms: _425  and  _427
REMARK  177  A    between atoms: _427  and  _428
REMARK  178  A    between atoms: _430  and  _432
REMARK  179  A    between atoms: _432  and  _433
REMARK  180  A    between atoms: _432  and  _435
REMARK  181  A    between atoms: _435  and  _436
REMARK  182  A    between atoms: _436  and  _437
REMARK  183  A    between atoms: _442  and  _444
REMARK  184  A    between atoms: _444  and  _445
REMARK  185  A    between atoms: _447  and  _449
REMARK  186  A    between atoms: _449  and  _450
REMARK  187  A    between atoms: _449  and  _452
REMARK  188  A    between atoms: _452  and  _453
REMARK  189  A    between atoms: _459  and  _461
REMARK  190  A    between atoms: _461  and  _462
REMARK  191  A    between atoms: _461  and  _464
REMARK  192  A    between atoms: _464  and  _465
REMARK  193  A    between atoms: _465  and  _466
REMARK  194  A    between atoms: _468  and  _470
REMARK  195  A    between atoms: _470  and  _471
REMARK  196  A    between atoms: _470  and  _473
REMARK  197  A    between atoms: _473  and  _474
REMARK  198  A    between atoms: _477  and  _479
REMARK  199  A    between atoms: _479  and  _480
REMARK  200  A    between atoms: _479  and  _482
REMARK  201  A    between atoms: _482  and  _483
REMARK  202  A    between atoms: _483  and  _484
REMARK  203  A    between atoms: _484  and  _485
REMARK  204  A    between atoms: _494  and  _496
REMARK  205  A    between atoms: _496  and  _497
REMARK  206  A    between atoms: _496  and  _499
REMARK  207  A    between atoms: _499  and  _500
REMARK  208  A    between atoms: _506  and  _508
REMARK  209  A    between atoms: _508  and  _509
REMARK  210  A    between atoms: _508  and  _511
REMARK  211  A    between atoms: _511  and  _512
REMARK  212  A    between atoms: _515  and  _517
REMARK  213  A    between atoms: _517  and  _518
REMARK  214  A    between atoms: _517  and  _520
REMARK  215  A    between atoms: _520  and  _521
REMARK  216  A    between atoms: _524  and  _526
REMARK  217  A    between atoms: _526  and  _527
REMARK  218  A    between atoms: _526  and  _529
REMARK  219  A    between atoms: _529  and  _530
REMARK  220  A    between atoms: _536  and  _538
REMARK  221  A    between atoms: _538  and  _539
REMARK  222  A    between atoms: _538  and  _541
REMARK  223  A    between atoms: _541  and  _542
REMARK  224  A    between atoms: _542  and  _543
REMARK  225  A    between atoms: _545  and  _547
REMARK  226  A    between atoms: _547  and  _548
REMARK  227  A    between atoms: _547  and  _550
REMARK  228  A    between atoms: _550  and  _551
REMARK  229  A    between atoms: _551  and  _552
REMARK  230  A    between atoms: _556  and  _557
REMARK  231  A    between atoms: _562  and  _564
REMARK  232  A    between atoms: _564  and  _565
REMARK  233  A    between atoms: _564  and  _567
REMARK  234  A    between atoms: _567  and  _568
REMARK  235  A    between atoms: _568  and  _569
REMARK  236  A    between atoms: _569  and  _570
REMARK  237  A    between atoms: _570  and  _571
REMARK  238  A    between atoms: _575  and  _577
REMARK  239  A    between atoms: _577  and  _578
REMARK  240  A    between atoms: _577  and  _580
REMARK  241  A    between atoms: _580  and  _581
REMARK  242  A    between atoms: _587  and  _589
REMARK  243  A    between atoms: _589  and  _590
REMARK  244  A    between atoms: _589  and  _592
REMARK  245  A    between atoms: _592  and  _593
REMARK  246  A    between atoms: _596  and  _598
REMARK  247  A    between atoms: _598  and  _599
REMARK  248  A    between atoms: _598  and  _601
REMARK  249  A    between atoms: _601  and  _602
REMARK  250  A    between atoms: _605  and  _607
REMARK  251  A    between atoms: _607  and  _608
REMARK  252  A    between atoms: _607  and  _610
REMARK  253  A    between atoms: _613  and  _615
REMARK  254  A    between atoms: _615  and  _616
REMARK  255  A    between atoms: _615  and  _618
REMARK  256  A    between atoms: _618  and  _619
REMARK  257  A    between atoms: _624  and  _626
REMARK  258  A    between atoms: _626  and  _627
REMARK  259  A    between atoms: _626  and  _629
REMARK  260  A    between atoms: _629  and  _630
REMARK  261  A    between atoms: _633  and  _635
REMARK  262  A    between atoms: _635  and  _636
REMARK  263  A    between atoms: _635  and  _638
REMARK  264  A    between atoms: _638  and  _639
REMARK  265  A    between atoms: _642  and  _644
REMARK  266  A    between atoms: _644  and  _645
REMARK  267  A    between atoms: _644  and  _647
REMARK  268  A    between atoms: _647  and  _648
REMARK  269  A    between atoms: _651  and  _653
REMARK  270  A    between atoms: _653  and  _654
REMARK  271  A    between atoms: _653  and  _656
REMARK  272  A    between atoms: _656  and  _657
REMARK  273  A    between atoms: _662  and  _663
REMARK                            x       y       z     vdW  Elec       q    Type
REMARK                         _______ _______ _______ _____ _____    ______ ____
ROOT
ATOM      1  CB  HIS A   1      23.390   1.436  21.101  0.00  0.00    +0.072 C 
ENDROOT
BRANCH   1   2
ATOM      2  CG  HIS A   1      22.838   2.762  20.687  0.00  0.00    +0.082 A 
ATOM      3  CD2 HIS A   1      22.129   3.685  21.375  0.00  0.00    +0.115 A 
ATOM      4  NE2 HIS A   1      21.901   4.739  20.526  0.00  0.00    -0.221 NA
ATOM      5  CE1 HIS A   1      22.451   4.473  19.354  0.00  0.00    +0.199 A 
ATOM      6  ND1 HIS A   1      23.022   3.284  19.423  0.00  0.00    -0.227 NA
ENDBRANCH   1   2
BRANCH   1   7
ATOM      7  CA  HIS A   1      24.882   1.471  21.443  0.00  0.00    +0.139 C 
BRANCH   7   8
ATOM      8  N   HIS A   1      25.323   0.158  21.885  0.00  0.00    -0.239 NA
ATOM      9  H   HIS A   1      24.614  -0.583  22.058  0.00  0.00    +0.142 HD
ENDBRANCH   7   8
BRANCH   7  10
ATOM     10  C   HIS A   1      25.137   2.498  22.548  0.00  0.00    +0.224 C 
ATOM     11  O   HIS A   1      25.525   3.639  22.282  0.00  0.00    -0.287 OA
ENDBRANCH   7  10
ENDBRANCH   1   7
TORSDOF 4
REMARK  Name = ../refined-set-2016/2p4y/2p4y_pocket.pdb
REMARK  273 active torsions:
REMARK  status: ('A' for Active; 'I' for Inactive)
REMARK    1  A    between atoms: _1  and  _3
REMARK    2  A    between atoms: _3  and  _4
REMARK    3  A    between atoms: _3  and  _6
REMARK    4  A    between atoms: _6  and  _7
REMARK    5  A    between atoms: _12  and  _13
REMARK    6  A    between atoms: _15  and  _17
REMARK    7  A    between atoms: _17  and  _18
REMARK    8  A    between atoms: _17  and  _20
REMARK    9  A    between atoms: _20  and  _21
REMARK   10  A    between atoms: _23  and  _25
REMARK   11  A    between atoms: _25  and  _26
REMARK   12  A    between atoms: _25  and  _28
REMARK   13  A    between atoms: _28  and  _29
REMARK   14  A    between atoms: _36  and  _37
REMARK   15  A    between atoms: _42  and  _44
REMARK   16  A    between atoms: _44  and  _45
REMARK   17  A    between atoms: _44  and  _47
REMARK   18  A    between atoms: _47  and  _48
REMARK   19  A    between atoms: _51  and  _53
REMARK   20  A    between atoms: _53  and  _54
REMARK   21  A    between atoms: _53  and  _56
REMARK   22  A    between atoms: _56  and  _57
REMARK   23  A    between atoms: _60  and  _62
REMARK   24  A    between atoms: _62  and  _63
REMARK   25  A    between atoms: _62  and  _65
REMARK   26  A    between atoms: _65  and  _66
REMARK   27  A    between atoms: _69  and  _71
REMARK   28  A    between atoms: _71  and  _72
REMARK   29  A    between atoms: _71  and  _74
REMARK   30  A    between atoms: _74  and  _75
REMARK   31  A    between atoms: _75  and  _76
REMARK   32  A    between atoms: _76  and  _77
REMARK   33  A    between atoms: _86  and  _88
REMARK   34  A    between atoms: _88  and  _89
REMARK   35  A    between atoms: _88  and  _91
REMARK   36  A    between atoms: _91  and  _92
REMARK   37  A    between atoms: _95  and  _97
REMARK   38  A    between atoms: _97  and  _98
REMARK   39  A    between atoms: _97  and  _100
REMARK   40  A    between atoms: _100  and  _101
REMARK   41  A    between atoms: _107  and  _109
REMARK   42  A    between atoms: _109  and  _110
REMARK   43  A    between atoms: _109  and  _112
REMARK   44  A    between atoms: _112  and  _113
REMARK   45  A    between atoms: _113  and  _114
REMARK   46  A    between atoms: _119  and  _121
REMARK   47  A    between atoms: _121  and  _122
REMARK   48  A    between atoms: _124  and  _126
REMARK   49  A    between atoms: _126  and  _127
REMARK   50  A    between atoms: _126  and  _129
REMARK   51  A    between atoms: _131  and  _133
REMARK   52  A    between atoms: _133  and  _134
REMARK   53  A    between atoms: _133  and  _136
REMARK   54  A    between atoms: _136  and  _137
REMARK   55  A    between atoms: _137  and  _138
REMARK   56  A    between atoms: _143  and  _145
REMARK   57  A    between atoms: _145  and  _146
REMARK   58  A    between atoms: _145  and  _148
REMARK   59  A    between atoms: _148  and  _149
REMARK   60  A    between atoms: _155  and  _157
REMARK   61  A    between atoms: _157  and  _158
REMARK   62  A    between atoms: _157  and  _160
REMARK   63  A    between atoms: _160  and  _161
REMARK   64  A    between atoms: _161  and  _162
REMARK   65  A    between atoms: _162  and  _163
REMARK   66  A    between atoms: _172  and  _174
REMARK   67  A    between atoms: _174  and  _175
REMARK   68  A    between atoms: _174  and  _177
REMARK   69  A    between atoms: _177  and  _178
REMARK   70  A    between atoms: _180  and  _182
REMARK   71  A    between atoms: _182  and  _183
REMARK   72  A    between atoms: _182  and  _185
REMARK   73  A    between atoms: _188  and  _190
REMARK   74  A    between atoms: _190  and  _191
REMARK   75  A    between atoms: _190  and  _193
REMARK   76  A    between atoms: _193  and  _194
REMARK   77  A    between atoms: _194  and  _195
REMARK   78  A    between atoms: _198  and  _200
REMARK   79  A    between atoms: _200  and  _201
REMARK   80  A    between atoms: _204  and  _206
REMARK   81  A    between atoms: _206  and  _207
REMARK   82  A    between atoms: _206  and  _209
REMARK   83  A    between atoms: _212  and  _214
REMARK   84  A    between atoms: _214  and  _215
REMARK   85  A    between atoms: _214  and  _217
REMARK   86  A    between atoms: _217  and  _218
REMARK   87  A    between atoms: _218  and  _219
REMARK   88  A    between atoms: _224  and  _226
REMARK   89  A    between atoms: _226  and  _227
REMARK   90  A    between atoms: _226  and  _229
REMARK   91  A    between atoms: _229  and  _230
REMARK   92  A    between atoms: _230  and  _231
REMARK   93  A    between atoms: _234  and  _236
REMARK   94  A    between atoms: _236  and  _237
REMARK   95  A    between atoms: _236  and  _239
REMARK   96  A    between atoms: _239  and  _240
REMARK   97  A    between atoms: _243  and  _245
REMARK   98  A    between atoms: _245  and  _246
REMARK   99  A    between atoms: _245  and  _248
REMARK  100  A    between atoms: _248  and  _249
REMARK  101  A    between atoms: _252  and  _254
REMARK  102  A    between atoms: _254  and  _255
REMARK  103  A    between atoms: _254  and  _257
REMARK  104  A    between atoms: _257  and  _258
REMARK  105  A    between atoms: _263  and  _264
REMARK  106  A    between atoms: _266  and  _268
REMARK  107  A    between atoms: _268  and  _269
REMARK  108  A    between atoms: _268  and  _271
REMARK  109  A    between atoms: _274  and  _276
REMARK  110  A    between atoms: _276  and  _277
REMARK  111  A    between atoms: _276  and  _279
REMARK  112  A    between atoms: _279  and  _280
REMARK  113  A    between atoms: _285  and  _287
REMARK  114  A    between atoms: _287  and  _288
REMARK  115  A    between atoms: _287  and  _290
REMARK  116  A    between atoms: _290  and  _291
REMARK  117  A    between atoms: _294  and  _296
REMARK  118  A    between atoms: _296  and  _297
REMARK  119  A    between atoms: _296  and  _299
REMARK  120  A    between atoms: _299  and  _300
REMARK  121  A    between atoms: _303  and  _305
REMARK  122  A    between atoms: _305  and  _306
REMARK  123  A    between atoms: _305  and  _308
REMARK  124  A    between atoms: _308  and  _309
REMARK  125  A    between atoms: _314  and  _315
REMARK  126  A    between atoms: _317  and  _319
REMARK  127  A    between atoms: _319  and  _320
REMARK  128  A    between atoms: _319  and  _322
REMARK  129  A    between atoms: _322  and  _323
REMARK  130  A    between atoms: _326  and  _328
REMARK  131  A    between atoms: _328  and  _329
REMARK  132  A    between atoms: _328  and  _331
REMARK  133  A    between atoms: _331  and  _332
REMARK  134  A    between atoms: _332  and  _333
REMARK  135  A    between atoms: _335  and  _337
REMARK  136  A    between atoms: _337  and  _338
REMARK  137  A    between atoms: _337  and  _340
REMARK  138  A    between atoms: _340  and  _341
REMARK  139  A    between atoms: _344  and  _346
REMARK  140  A    between atoms: _346  and  _347
REMARK  141  A    between atoms: _350  and  _352
REMARK  142  A    between atoms: _352  and  _353
REMARK  143  A    between atoms: _352  and  _355
REMARK  144  A    between atoms: _355  and  _356
REMARK  145  A    between atoms: _358  and  _360
REMARK  146  A    between atoms: _360  and  _361
REMARK  147  A    between atoms: _360  and  _363
REMARK  148  A    between atoms: _363  and  _364
REMARK  149  A    between atoms: _367  and  _369
REMARK  150  A    between atoms: _369  and  _370
REMARK  151  A    between atoms: _369  and  _372
REMARK  152  A    between atoms: _372  and  _373
REMARK  153  A    between atoms: _373  and  _374
REMARK  154  A    between atoms: _376  and  _378
REMARK  155  A    between atoms: _378  and  _379
REMARK  156  A    between atoms: _381  and  _383
REMARK  157  A    between atoms: _383  and  _384
REMARK  158  A    between atoms: _383  and  _386
REMARK  159  A    between atoms: _389  and  _391
REMARK  160  A    between atoms: _391  and  _392
REMARK  161  A    between atoms: _391  and  _394
REMARK  162  A    between atoms: _394  and  _395
REMARK  163  A    between atoms: _398  and  _400
REMARK  164  A    between atoms: _400  and  _401
REMARK  165  A    between atoms: _400  and  _403
REMARK  166  A    between atoms: _403  and  _404
REMARK  167  A    between atoms: _407  and  _409
REMARK  168  A    between atoms: _409  and  _410
REMARK  169  A    between atoms: _409  and  _412
REMARK  170  A    between atoms: _412  and  _413
REMARK  171  A    between atoms: _415  and  _417
REMARK  172  A    between atoms: _417  and  _418
REMARK  173  A    between atoms: _417  and  _420
REMARK  174  A    between atoms: _420  and  _421
REMARK  175  A    between atoms: _421  and  _422
REMARK  176  A    between atoms: _425  and  _427
REMARK  177  A    between atoms: _427  and  _428
REMARK  178  A    between atoms: _430  and  _432
REMARK  179  A    between atoms: _432  and  _433
REMARK  180  A    between atoms: _432  and  _435
REMARK  181  A    between atoms: _435  and  _436
REMARK  182  A    between atoms: _436  and  _437
REMARK  183  A    between atoms: _442  and  _444
REMARK  184  A    between atoms: _444  and  _445
REMARK  185  A    between atoms: _447  and  _449
REMARK  186  A    between atoms: _449  and  _450
REMARK  187  A    between atoms: _449  and  _452
REMARK  188  A    between atoms: _452  and  _453
REMARK  189  A    between atoms: _459  and  _461
REMARK  190  A    between atoms: _461  and  _462
REMARK  191  A    between atoms: _461  and  _464
REMARK  192  A    between atoms: _464  and  _465
REMARK  193  A    between atoms: _465  and  _466
REMARK  194  A    between atoms: _468  and  _470
REMARK  195  A    between atoms: _470  and  _471
REMARK  196  A    between atoms: _470  and  _473
REMARK  197  A    between atoms: _473  and  _474
REMARK  198  A    between atoms: _477  and  _479
REMARK  199  A    between atoms: _479  and  _480
REMARK  200  A    between atoms: _479  and  _482
REMARK  201  A    between atoms: _482  and  _483
REMARK  202  A    between atoms: _483  and  _484
REMARK  203  A    between atoms: _484  and  _485
REMARK  204  A    between atoms: _494  and  _496
REMARK  205  A    between atoms: _496  and  _497
REMARK  206  A    between atoms: _496  and  _499
REMARK  207  A    between atoms: _499  and  _500
REMARK  208  A    between atoms: _506  and  _508
REMARK  209  A    between atoms: _508  and  _509
REMARK  210  A    between atoms: _508  and  _511
REMARK  211  A    between atoms: _511  and  _512
REMARK  212  A    between atoms: _515  and  _517
REMARK  213  A    between atoms: _517  and  _518
REMARK  214  A    between atoms: _517  and  _520
REMARK  215  A    between atoms: _520  and  _521
REMARK  216  A    between atoms: _524  and  _526
REMARK  217  A    between atoms: _526  and  _527
REMARK  218  A    between atoms: _526  and  _529
REMARK  219  A    between atoms: _529  and  _530
REMARK  220  A    between atoms: _536  and  _538
REMARK  221  A    between atoms: _538  and  _539
REMARK  222  A    between atoms: _538  and  _541
REMARK  223  A    between atoms: _541  and  _542
REMARK  224  A    between atoms: _542  and  _543
REMARK  225  A    between atoms: _545  and  _547
REMARK  226  A    between atoms: _547  and  _548
REMARK  227  A    between atoms: _547  and  _550
REMARK  228  A    between atoms: _550  and  _551
REMARK  229  A    between atoms: _551  and  _552
REMARK  230  A    between atoms: _556  and  _557
REMARK  231  A    between atoms: _562  and  _564
REMARK  232  A    between atoms: _564  and  _565
REMARK  233  A    between atoms: _564  and  _567
REMARK  234  A    between atoms: _567  and  _568
REMARK  235  A    between atoms: _568  and  _569
REMARK  236  A    between atoms: _569  and  _570
REMARK  237  A    between atoms: _570  and  _571
REMARK  238  A    between atoms: _575  and  _577
REMARK  239  A    between atoms: _577  and  _578
REMARK  240  A    between atoms: _577  and  _580
REMARK  241  A    between atoms: _580  and  _581
REMARK  242  A    between atoms: _587  and  _589
REMARK  243  A    between atoms: _589  and  _590
REMARK  244  A    between atoms: _589  and  _592
REMARK  245  A    between atoms: _592  and  _593
REMARK  246  A    between atoms: _596  and  _598
REMARK  247  A    between atoms: _598  and  _599
REMARK  248  A    between atoms: _598  and  _601
REMARK  249  A    between atoms: _601  and  _602
REMARK  250  A    between atoms: _605  and  _607
REMARK  251  A    between atoms: _607  and  _608
REMARK  252  A    between atoms: _607  and  _610
REMARK  253  A    between atoms: _613  and  _615
REMARK  254  A    between atoms: _615  and  _616
REMARK  255  A    between atoms: _615  and  _618
REMARK  256  A    between atoms: _618  and  _619
REMARK  257  A    between atoms: _624  and  _626
REMARK  258  A    between atoms: _626  and  _627
REMARK  259  A    between atoms: _626  and  _629
REMARK  260  A    between atoms: _629  and  _630
REMARK  261  A    between atoms: _633  and  _635
REMARK  262  A    between atoms: _635  and  _636
REMARK  263  A    between atoms: _635  and  _638
REMARK  264  A    between atoms: _638  and  _639
REMARK  265  A    between atoms: _642  and  _644
REMARK  266  A    between atoms: _644  and  _645
REMARK  267  A    between atoms: _644  and  _647
REMARK  268  A    between atoms: _647  and  _648
REMARK  269  A    between atoms: _651  and  _653
REMARK  270  A    between atoms: _653  and  _654
REMARK  271  A    between atoms: _653  and  _656
REMARK  272  A    between atoms: _656  and  _657
REMARK  273  A    between atoms: _662  and  _663
REMARK                            x       y       z     vdW  Elec       q    Type
REMARK                         _______ _______ _______ _____ _____    ______ ____
ROOT
ATOM      1  C   LEU A   1      28.525   5.777  21.572  0.00  0.00    +0.238 C 
ATOM      2  N   LEU A   2      27.391   5.906  22.253  0.00  0.00    -0.298 N 
ATOM      3  H   LEU A   2      26.855   5.050  22.502  0.00  0.00    +0.150 HD
ATOM      4  O   LEU A   1      29.185   6.735  21.176  0.00  0.00    -0.274 OA
ENDROOT
BRANCH   1   5
ATOM      5  CA  LEU A   1      28.983   4.350  21.302  0.00  0.00    +0.145 C 
BRANCH   5   6
ATOM      6  N   LEU A   1      28.747   3.511  22.470  0.00  0.00    -0.238 NA
ATOM      7  H   LEU A   1      28.186   2.642  22.363  0.00  0.00    +0.142 HD
ENDBRANCH   5   6
BRANCH   5   8
ATOM      8  CB  LEU A   1      28.235   3.797  20.094  0.00  0.00    +0.026 C 
BRANCH   8   9
ATOM      9  CG  LEU A   1      28.901   3.950  18.726  0.00  0.00    +0.002 C 
ATOM     10  CD2 LEU A   1      29.665   5.265  18.625  0.00  0.00    +0.000 C 
ATOM     11  CD1 LEU A   1      27.815   3.889  17.668  0.00  0.00    +0.000 C 
ENDBRANCH   8   9
ENDBRANCH   5   8
ENDBRANCH   1   5
BRANCH   2  12
ATOM     12  CA  LEU A   2      26.870   7.209  22.664  0.00  0.00    +0.137 C 
BRANCH  12  13
ATOM     13  C   LEU A   2      27.828   7.970  23.580  0.00  0.00    +0.227 C 
ATOM     14  O   LEU A   2      27.971   9.183  23.460  0.00  0.00    -0.286 OA
ENDBRANCH  12  13
BRANCH  12  15
ATOM     15  CB  LEU A   2      25.528   7.041  23.385  0.00  0.00    +0.028 C 
BRANCH  15  16
ATOM     16  CG  LEU A   2      24.254   7.092  22.546  0.00  0.00    +0.002 C 
ATOM     17  CD2 LEU A   2      23.051   6.889  23.454  0.00  0.00    +0.000 C 
ATOM     18  CD1 LEU A   2      24.163   8.435  21.821  0.00  0.00    +0.000 C 
ENDBRANCH  15  16
ENDBRANCH  12  15
ENDBRANCH   2  12
TORSDOF 8
REMARK  Name = ../refined-set-2016/2p4y/2p4y_pocket.pdb
REMARK  273 active torsions:
REMARK  status: ('A' for Active; 'I' for Inactive)
REMARK    1  A    between atoms: _1  and  _3
REMARK    2  A    between atoms: _3  and  _4
REMARK    3  A    between atoms: _3  and  _6
REMARK    4  A    between atoms: _6  and  _7
REMARK    5  A    between atoms: _12  and  _13
REMARK    6  A    between atoms: _15  and  _17
REMARK    7  A    between atoms: _17  and  _18
REMARK    8  A    between atoms: _17  and  _20
REMARK    9  A    between atoms: _20  and  _21
REMARK   10  A    between atoms: _23  and  _25
REMARK   11  A    between atoms: _25  and  _26
REMARK   12  A    between atoms: _25  and  _28
REMARK   13  A    between atoms: _28  and  _29
REMARK   14  A    between atoms: _36  and  _37
REMARK   15  A    between atoms: _42  and  _44
REMARK   16  A    between atoms: _44  and  _45
REMARK   17  A    between atoms: _44  and  _47
REMARK   18  A    between atoms: _47  and  _48
REMARK   19  A    between atoms: _51  and  _53
REMARK   20  A    between atoms: _53  and  _54
REMARK   21  A    between atoms: _53  and  _56
REMARK   22  A    between atoms: _56  and  _57
REMARK   23  A    between atoms: _60  and  _62
REMARK   24  A    between atoms: _62  and  _63
REMARK   25  A    between atoms: _62  and  _65
REMARK   26  A    between atoms: _65  and  _66
REMARK   27  A    between atoms: _69  and  _71
REMARK   28  A    between atoms: _71  and  _72
REMARK   29  A    between atoms: _71  and  _74
REMARK   30  A    between atoms: _74  and  _75
REMARK   31  A    between atoms: _75  and  _76
REMARK   32  A    between atoms: _76  and  _77
REMARK   33  A    between atoms: _86  and  _88
REMARK   34  A    between atoms: _88  and  _89
REMARK   35  A    between atoms: _88  and  _91
REMARK   36  A    between atoms: _91  and  _92
REMARK   37  A    between atoms: _95  and  _97
REMARK   38  A    between atoms: _97  and  _98
REMARK   39  A    between atoms: _97  and  _100
REMARK   40  A    between atoms: _100  and  _101
REMARK   41  A    between atoms: _107  and  _109
REMARK   42  A    between atoms: _109  and  _110
REMARK   43  A    between atoms: _109  and  _112
REMARK   44  A    between atoms: _112  and  _113
REMARK   45  A    between atoms: _113  and  _114
REMARK   46  A    between atoms: _119  and  _121
REMARK   47  A    between atoms: _121  and  _122
REMARK   48  A    between atoms: _124  and  _126
REMARK   49  A    between atoms: _126  and  _127
REMARK   50  A    between atoms: _126  and  _129
REMARK   51  A    between atoms: _131  and  _133
REMARK   52  A    between atoms: _133  and  _134
REMARK   53  A    between atoms: _133  and  _136
REMARK   54  A    between atoms: _136  and  _137
REMARK   55  A    between atoms: _137  and  _138
REMARK   56  A    between atoms: _143  and  _145
REMARK   57  A    between atoms: _145  and  _146
REMARK   58  A    between atoms: _145  and  _148
REMARK   59  A    between atoms: _148  and  _149
REMARK   60  A    between atoms: _155  and  _157
REMARK   61  A    between atoms: _157  and  _158
REMARK   62  A    between atoms: _157  and  _160
REMARK   63  A    between atoms: _160  and  _161
REMARK   64  A    between atoms: _161  and  _162
REMARK   65  A    between atoms: _162  and  _163
REMARK   66  A    between atoms: _172  and  _174
REMARK   67  A    between atoms: _174  and  _175
REMARK   68  A    between atoms: _174  and  _177
REMARK   69  A    between atoms: _177  and  _178
REMARK   70  A    between atoms: _180  and  _182
REMARK   71  A    between atoms: _182  and  _183
REMARK   72  A    between atoms: _182  and  _185
REMARK   73  A    between atoms: _188  and  _190
REMARK   74  A    between atoms: _190  and  _191
REMARK   75  A    between atoms: _190  and  _193
REMARK   76  A    between atoms: _193  and  _194
REMARK   77  A    between atoms: _194  and  _195
REMARK   78  A    between atoms: _198  and  _200
REMARK   79  A    between atoms: _200  and  _201
REMARK   80  A    between atoms: _204  and  _206
REMARK   81  A    between atoms: _206  and  _207
REMARK   82  A    between atoms: _206  and  _209
REMARK   83  A    between atoms: _212  and  _214
REMARK   84  A    between atoms: _214  and  _215
REMARK   85  A    between atoms: _214  and  _217
REMARK   86  A    between atoms: _217  and  _218
REMARK   87  A    between atoms: _218  and  _219
REMARK   88  A    between atoms: _224  and  _226
REMARK   89  A    between atoms: _226  and  _227
REMARK   90  A    between atoms: _226  and  _229
REMARK   91  A    between atoms: _229  and  _230
REMARK   92  A    between atoms: _230  and  _231
REMARK   93  A    between atoms: _234  and  _236
REMARK   94  A    between atoms: _236  and  _237
REMARK   95  A    between atoms: _236  and  _239
REMARK   96  A    between atoms: _239  and  _240
REMARK   97  A    between atoms: _243  and  _245
REMARK   98  A    between atoms: _245  and  _246
REMARK   99  A    between atoms: _245  and  _248
REMARK  100  A    between atoms: _248  and  _249
REMARK  101  A    between atoms: _252  and  _254
REMARK  102  A    between atoms: _254  and  _255
REMARK  103  A    between atoms: _254  and  _257
REMARK  104  A    between atoms: _257  and  _258
REMARK  105  A    between atoms: _263  and  _264
REMARK  106  A    between atoms: _266  and  _268
REMARK  107  A    between atoms: _268  and  _269
REMARK  108  A    between atoms: _268  and  _271
REMARK  109  A    between atoms: _274  and  _276
REMARK  110  A    between atoms: _276  and  _277
REMARK  111  A    between atoms: _276  and  _279
REMARK  112  A    between atoms: _279  and  _280
REMARK  113  A    between atoms: _285  and  _287
REMARK  114  A    between atoms: _287  and  _288
REMARK  115  A    between atoms: _287  and  _290
REMARK  116  A    between atoms: _290  and  _291
REMARK  117  A    between atoms: _294  and  _296
REMARK  118  A    between atoms: _296  and  _297
REMARK  119  A    between atoms: _296  and  _299
REMARK  120  A    between atoms: _299  and  _300
REMARK  121  A    between atoms: _303  and  _305
REMARK  122  A    between atoms: _305  and  _306
REMARK  123  A    between atoms: _305  and  _308
REMARK  124  A    between atoms: _308  and  _309
REMARK  125  A    between atoms: _314  and  _315
REMARK  126  A    between atoms: _317  and  _319
REMARK  127  A    between atoms: _319  and  _320
REMARK  128  A    between atoms: _319  and  _322
REMARK  129  A    between atoms: _322  and  _323
REMARK  130  A    between atoms: _326  and  _328
REMARK  131  A    between atoms: _328  and  _329
REMARK  132  A    between atoms: _328  and  _331
REMARK  133  A    between atoms: _331  and  _332
REMARK  134  A    between atoms: _332  and  _333
REMARK  135  A    between atoms: _335  and  _337
REMARK  136  A    between atoms: _337  and  _338
REMARK  137  A    between atoms: _337  and  _340
REMARK  138  A    between atoms: _340  and  _341
REMARK  139  A    between atoms: _344  and  _346
REMARK  140  A    between atoms: _346  and  _347
REMARK  141  A    between atoms: _350  and  _352
REMARK  142  A    between atoms: _352  and  _353
REMARK  143  A    between atoms: _352  and  _355
REMARK  144  A    between atoms: _355  and  _356
REMARK  145  A    between atoms: _358  and  _360
REMARK  146  A    between atoms: _360  and  _361
REMARK  147  A    between atoms: _360  and  _363
REMARK  148  A    between atoms: _363  and  _364
REMARK  149  A    between atoms: _367  and  _369
REMARK  150  A    between atoms: _369  and  _370
REMARK  151  A    between atoms: _369  and  _372
REMARK  152  A    between atoms: _372  and  _373
REMARK  153  A    between atoms: _373  and  _374
REMARK  154  A    between atoms: _376  and  _378
REMARK  155  A    between atoms: _378  and  _379
REMARK  156  A    between atoms: _381  and  _383
REMARK  157  A    between atoms: _383  and  _384
REMARK  158  A    between atoms: _383  and  _386
REMARK  159  A    between atoms: _389  and  _391
REMARK  160  A    between atoms: _391  and  _392
REMARK  161  A    between atoms: _391  and  _394
REMARK  162  A    between atoms: _394  and  _395
REMARK  163  A    between atoms: _398  and  _400
REMARK  164  A    between atoms: _400  and  _401
REMARK  165  A    between atoms: _400  and  _403
REMARK  166  A    between atoms: _403  and  _404
REMARK  167  A    between atoms: _407  and  _409
REMARK  168  A    between atoms: _409  and  _410
REMARK  169  A    between atoms: _409  and  _412
REMARK  170  A    between atoms: _412  and  _413
REMARK  171  A    between atoms: _415  and  _417
REMARK  172  A    between atoms: _417  and  _418
REMARK  173  A    between atoms: _417  and  _420
REMARK  174  A    between atoms: _420  and  _421
REMARK  175  A    between atoms: _421  and  _422
REMARK  176  A    between atoms: _425  and  _427
REMARK  177  A    between atoms: _427  and  _428
REMARK  178  A    between atoms: _430  and  _432
REMARK  179  A    between atoms: _432  and  _433
REMARK  180  A    between atoms: _432  and  _435
REMARK  181  A    between atoms: _435  and  _436
REMARK  182  A    between atoms: _436  and  _437
REMARK  183  A    between atoms: _442  and  _444
REMARK  184  A    between atoms: _444  and  _445
REMARK  185  A    between atoms: _447  and  _449
REMARK  186  A    between atoms: _449  and  _450
REMARK  187  A    between atoms: _449  and  _452
REMARK  188  A    between atoms: _452  and  _453
REMARK  189  A    between atoms: _459  and  _461
REMARK  190  A    between atoms: _461  and  _462
REMARK  191  A    between atoms: _461  and  _464
REMARK  192  A    between atoms: _464  and  _465
REMARK  193  A    between atoms: _465  and  _466
REMARK  194  A    between atoms: _468  and  _470
REMARK  195  A    between atoms: _470  and  _471
REMARK  196  A    between atoms: _470  and  _473
REMARK  197  A    between atoms: _473  and  _474
REMARK  198  A    between atoms: _477  and  _479
REMARK  199  A    between atoms: _479  and  _480
REMARK  200  A    between atoms: _479  and  _482
REMARK  201  A    between atoms: _482  and  _483
REMARK  202  A    between atoms: _483  and  _484
REMARK  203  A    between atoms: _484  and  _485
REMARK  204  A    between atoms: _494  and  _496
REMARK  205  A    between atoms: _496  and  _497
REMARK  206  A    between atoms: _496  and  _499
REMARK  207  A    between atoms: _499  and  _500
REMARK  208  A    between atoms: _506  and  _508
REMARK  209  A    between atoms: _508  and  _509
REMARK  210  A    between atoms: _508  and  _511
REMARK  211  A    between atoms: _511  and  _512
REMARK  212  A    between atoms: _515  and  _517
REMARK  213  A    between atoms: _517  and  _518
REMARK  214  A    between atoms: _517  and  _520
REMARK  215  A    between atoms: _520  and  _521
REMARK  216  A    between atoms: _524  and  _526
REMARK  217  A    between atoms: _526  and  _527
REMARK  218  A    between atoms: _526  and  _529
REMARK  219  A    between atoms: _529  and  _530
REMARK  220  A    between atoms: _536  and  _538
REMARK  221  A    between atoms: _538  and  _539
REMARK  222  A    between atoms: _538  and  _541
REMARK  223  A    between atoms: _541  and  _542
REMARK  224  A    between atoms: _542  and  _543
REMARK  225  A    between atoms: _545  and  _547
REMARK  226  A    between atoms: _547  and  _548
REMARK  227  A    between atoms: _547  and  _550
REMARK  228  A    between atoms: _550  and  _551
REMARK  229  A    between atoms: _551  and  _552
REMARK  230  A    between atoms: _556  and  _557
REMARK  231  A    between atoms: _562  and  _564
REMARK  232  A    between atoms: _564  and  _565
REMARK  233  A    between atoms: _564  and  _567
REMARK  234  A    between atoms: _567  and  _568
REMARK  235  A    between atoms: _568  and  _569
REMARK  236  A    between atoms: _569  and  _570
REMARK  237  A    between atoms: _570  and  _571
REMARK  238  A    between atoms: _575  and  _577
REMARK  239  A    between atoms: _577  and  _578
REMARK  240  A    between atoms: _577  and  _580
REMARK  241  A    between atoms: _580  and  _581
REMARK  242  A    between atoms: _587  and  _589
REMARK  243  A    between atoms: _589  and  _590
REMARK  244  A    between atoms: _589  and  _592
REMARK  245  A    between atoms: _592  and  _593
REMARK  246  A    between atoms: _596  and  _598
REMARK  247  A    between atoms: _598  and  _599
REMARK  248  A    between atoms: _598  and  _601
REMARK  249  A    between atoms: _601  and  _602
REMARK  250  A    between atoms: _605  and  _607
REMARK  251  A    between atoms: _607  and  _608
REMARK  252  A    between atoms: _607  and  _610
REMARK  253  A    between atoms: _613  and  _615
REMARK  254  A    between atoms: _615  and  _616
REMARK  255  A    between atoms: _615  and  _618
REMARK  256  A    between atoms: _618  and  _619
REMARK  257  A    between atoms: _624  and  _626
REMARK  258  A    between atoms: _626  and  _627
REMARK  259  A    between atoms: _626  and  _629
REMARK  260  A    between atoms: _629  and  _630
REMARK  261  A    between atoms: _633  and  _635
REMARK  262  A    between atoms: _635  and  _636
REMARK  263  A    between atoms: _635  and  _638
REMARK  264  A    between atoms: _638  and  _639
REMARK  265  A    between atoms: _642  and  _644
REMARK  266  A    between atoms: _644  and  _645
REMARK  267  A    between atoms: _644  and  _647
REMARK  268  A    between atoms: _647  and  _648
REMARK  269  A    between atoms: _651  and  _653
REMARK  270  A    between atoms: _653  and  _654
REMARK  271  A    between atoms: _653  and  _656
REMARK  272  A    between atoms: _656  and  _657
REMARK  273  A    between atoms: _662  and  _663
REMARK                            x       y       z     vdW  Elec       q    Type
REMARK                         _______ _______ _______ _____ _____    ______ ____
ROOT
ATOM      1  CA  LEU A   1      16.768   9.076  25.965  0.00  0.00    +0.133 C 
ENDROOT
BRANCH   1   2
ATOM      2  N   LEU A   1      15.784  10.144  26.156  0.00  0.00    -0.239 NA
ATOM      3  H   LEU A   1      15.740  10.923  25.468  0.00  0.00    +0.142 HD
ENDBRANCH   1   2
BRANCH   1   4
ATOM      4  C   LEU A   1      17.813   9.126  27.074  0.00  0.00    +0.224 C 
ATOM      5  O   LEU A   1      18.281   8.091  27.559  0.00  0.00    -0.287 OA
ENDBRANCH   1   4
BRANCH   1   6
ATOM      6  CB  LEU A   1      17.454   9.229  24.609  0.00  0.00    +0.025 C 
BRANCH   6   7
ATOM      7  CG  LEU A   1      16.495   9.273  23.417  0.00  0.00    +0.002 C 
ATOM      8  CD2 LEU A   1      15.776   7.929  23.272  0.00  0.00    +0.000 C 
ATOM      9  CD1 LEU A   1      17.261   9.615  22.154  0.00  0.00    +0.000 C 
ENDBRANCH   6   7
ENDBRANCH   1   6
TORSDOF 4
REMARK  Name = ../refined-set-2016/2p4y/2p4y_pocket.pdb
REMARK  273 active torsions:
REMARK  status: ('A' for Active; 'I' for Inactive)
REMARK    1  A    between atoms: _1  and  _3
REMARK    2  A    between atoms: _3  and  _4
REMARK    3  A    between atoms: _3  and  _6
REMARK    4  A    between atoms: _6  and  _7
REMARK    5  A    between atoms: _12  and  _13
REMARK    6  A    between atoms: _15  and  _17
REMARK    7  A    between atoms: _17  and  _18
REMARK    8  A    between atoms: _17  and  _20
REMARK    9  A    between atoms: _20  and  _21
REMARK   10  A    between atoms: _23  and  _25
REMARK   11  A    between atoms: _25  and  _26
REMARK   12  A    between atoms: _25  and  _28
REMARK   13  A    between atoms: _28  and  _29
REMARK   14  A    between atoms: _36  and  _37
REMARK   15  A    between atoms: _42  and  _44
REMARK   16  A    between atoms: _44  and  _45
REMARK   17  A    between atoms: _44  and  _47
REMARK   18  A    between atoms: _47  and  _48
REMARK   19  A    between atoms: _51  and  _53
REMARK   20  A    between atoms: _53  and  _54
REMARK   21  A    between atoms: _53  and  _56
REMARK   22  A    between atoms: _56  and  _57
REMARK   23  A    between atoms: _60  and  _62
REMARK   24  A    between atoms: _62  and  _63
REMARK   25  A    between atoms: _62  and  _65
REMARK   26  A    between atoms: _65  and  _66
REMARK   27  A    between atoms: _69  and  _71
REMARK   28  A    between atoms: _71  and  _72
REMARK   29  A    between atoms: _71  and  _74
REMARK   30  A    between atoms: _74  and  _75
REMARK   31  A    between atoms: _75  and  _76
REMARK   32  A    between atoms: _76  and  _77
REMARK   33  A    between atoms: _86  and  _88
REMARK   34  A    between atoms: _88  and  _89
REMARK   35  A    between atoms: _88  and  _91
REMARK   36  A    between atoms: _91  and  _92
REMARK   37  A    between atoms: _95  and  _97
REMARK   38  A    between atoms: _97  and  _98
REMARK   39  A    between atoms: _97  and  _100
REMARK   40  A    between atoms: _100  and  _101
REMARK   41  A    between atoms: _107  and  _109
REMARK   42  A    between atoms: _109  and  _110
REMARK   43  A    between atoms: _109  and  _112
REMARK   44  A    between atoms: _112  and  _113
REMARK   45  A    between atoms: _113  and  _114
REMARK   46  A    between atoms: _119  and  _121
REMARK   47  A    between atoms: _121  and  _122
REMARK   48  A    between atoms: _124  and  _126
REMARK   49  A    between atoms: _126  and  _127
REMARK   50  A    between atoms: _126  and  _129
REMARK   51  A    between atoms: _131  and  _133
REMARK   52  A    between atoms: _133  and  _134
REMARK   53  A    between atoms: _133  and  _136
REMARK   54  A    between atoms: _136  and  _137
REMARK   55  A    between atoms: _137  and  _138
REMARK   56  A    between atoms: _143  and  _145
REMARK   57  A    between atoms: _145  and  _146
REMARK   58  A    between atoms: _145  and  _148
REMARK   59  A    between atoms: _148  and  _149
REMARK   60  A    between atoms: _155  and  _157
REMARK   61  A    between atoms: _157  and  _158
REMARK   62  A    between atoms: _157  and  _160
REMARK   63  A    between atoms: _160  and  _161
REMARK   64  A    between atoms: _161  and  _162
REMARK   65  A    between atoms: _162  and  _163
REMARK   66  A    between atoms: _172  and  _174
REMARK   67  A    between atoms: _174  and  _175
REMARK   68  A    between atoms: _174  and  _177
REMARK   69  A    between atoms: _177  and  _178
REMARK   70  A    between atoms: _180  and  _182
REMARK   71  A    between atoms: _182  and  _183
REMARK   72  A    between atoms: _182  and  _185
REMARK   73  A    between atoms: _188  and  _190
REMARK   74  A    between atoms: _190  and  _191
REMARK   75  A    between atoms: _190  and  _193
REMARK   76  A    between atoms: _193  and  _194
REMARK   77  A    between atoms: _194  and  _195
REMARK   78  A    between atoms: _198  and  _200
REMARK   79  A    between atoms: _200  and  _201
REMARK   80  A    between atoms: _204  and  _206
REMARK   81  A    between atoms: _206  and  _207
REMARK   82  A    between atoms: _206  and  _209
REMARK   83  A    between atoms: _212  and  _214
REMARK   84  A    between atoms: _214  and  _215
REMARK   85  A    between atoms: _214  and  _217
REMARK   86  A    between atoms: _217  and  _218
REMARK   87  A    between atoms: _218  and  _219
REMARK   88  A    between atoms: _224  and  _226
REMARK   89  A    between atoms: _226  and  _227
REMARK   90  A    between atoms: _226  and  _229
REMARK   91  A    between atoms: _229  and  _230
REMARK   92  A    between atoms: _230  and  _231
REMARK   93  A    between atoms: _234  and  _236
REMARK   94  A    between atoms: _236  and  _237
REMARK   95  A    between atoms: _236  and  _239
REMARK   96  A    between atoms: _239  and  _240
REMARK   97  A    between atoms: _243  and  _245
REMARK   98  A    between atoms: _245  and  _246
REMARK   99  A    between atoms: _245  and  _248
REMARK  100  A    between atoms: _248  and  _249
REMARK  101  A    between atoms: _252  and  _254
REMARK  102  A    between atoms: _254  and  _255
REMARK  103  A    between atoms: _254  and  _257
REMARK  104  A    between atoms: _257  and  _258
REMARK  105  A    between atoms: _263  and  _264
REMARK  106  A    between atoms: _266  and  _268
REMARK  107  A    between atoms: _268  and  _269
REMARK  108  A    between atoms: _268  and  _271
REMARK  109  A    between atoms: _274  and  _276
REMARK  110  A    between atoms: _276  and  _277
REMARK  111  A    between atoms: _276  and  _279
REMARK  112  A    between atoms: _279  and  _280
REMARK  113  A    between atoms: _285  and  _287
REMARK  114  A    between atoms: _287  and  _288
REMARK  115  A    between atoms: _287  and  _290
REMARK  116  A    between atoms: _290  and  _291
REMARK  117  A    between atoms: _294  and  _296
REMARK  118  A    between atoms: _296  and  _297
REMARK  119  A    between atoms: _296  and  _299
REMARK  120  A    between atoms: _299  and  _300
REMARK  121  A    between atoms: _303  and  _305
REMARK  122  A    between atoms: _305  and  _306
REMARK  123  A    between atoms: _305  and  _308
REMARK  124  A    between atoms: _308  and  _309
REMARK  125  A    between atoms: _314  and  _315
REMARK  126  A    between atoms: _317  and  _319
REMARK  127  A    between atoms: _319  and  _320
REMARK  128  A    between atoms: _319  and  _322
REMARK  129  A    between atoms: _322  and  _323
REMARK  130  A    between atoms: _326  and  _328
REMARK  131  A    between atoms: _328  and  _329
REMARK  132  A    between atoms: _328  and  _331
REMARK  133  A    between atoms: _331  and  _332
REMARK  134  A    between atoms: _332  and  _333
REMARK  135  A    between atoms: _335  and  _337
REMARK  136  A    between atoms: _337  and  _338
REMARK  137  A    between atoms: _337  and  _340
REMARK  138  A    between atoms: _340  and  _341
REMARK  139  A    between atoms: _344  and  _346
REMARK  140  A    between atoms: _346  and  _347
REMARK  141  A    between atoms: _350  and  _352
REMARK  142  A    between atoms: _352  and  _353
REMARK  143  A    between atoms: _352  and  _355
REMARK  144  A    between atoms: _355  and  _356
REMARK  145  A    between atoms: _358  and  _360
REMARK  146  A    between atoms: _360  and  _361
REMARK  147  A    between atoms: _360  and  _363
REMARK  148  A    between atoms: _363  and  _364
REMARK  149  A    between atoms: _367  and  _369
REMARK  150  A    between atoms: _369  and  _370
REMARK  151  A    between atoms: _369  and  _372
REMARK  152  A    between atoms: _372  and  _373
REMARK  153  A    between atoms: _373  and  _374
REMARK  154  A    between atoms: _376  and  _378
REMARK  155  A    between atoms: _378  and  _379
REMARK  156  A    between atoms: _381  and  _383
REMARK  157  A    between atoms: _383  and  _384
REMARK  158  A    between atoms: _383  and  _386
REMARK  159  A    between atoms: _389  and  _391
REMARK  160  A    between atoms: _391  and  _392
REMARK  161  A    between atoms: _391  and  _394
REMARK  162  A    between atoms: _394  and  _395
REMARK  163  A    between atoms: _398  and  _400
REMARK  164  A    between atoms: _400  and  _401
REMARK  165  A    between atoms: _400  and  _403
REMARK  166  A    between atoms: _403  and  _404
REMARK  167  A    between atoms: _407  and  _409
REMARK  168  A    between atoms: _409  and  _410
REMARK  169  A    between atoms: _409  and  _412
REMARK  170  A    between atoms: _412  and  _413
REMARK  171  A    between atoms: _415  and  _417
REMARK  172  A    between atoms: _417  and  _418
REMARK  173  A    between atoms: _417  and  _420
REMARK  174  A    between atoms: _420  and  _421
REMARK  175  A    between atoms: _421  and  _422
REMARK  176  A    between atoms: _425  and  _427
REMARK  177  A    between atoms: _427  and  _428
REMARK  178  A    between atoms: _430  and  _432
REMARK  179  A    between atoms: _432  and  _433
REMARK  180  A    between atoms: _432  and  _435
REMARK  181  A    between atoms: _435  and  _436
REMARK  182  A    between atoms: _436  and  _437
REMARK  183  A    between atoms: _442  and  _444
REMARK  184  A    between atoms: _444  and  _445
REMARK  185  A    between atoms: _447  and  _449
REMARK  186  A    between atoms: _449  and  _450
REMARK  187  A    between atoms: _449  and  _452
REMARK  188  A    between atoms: _452  and  _453
REMARK  189  A    between atoms: _459  and  _461
REMARK  190  A    between atoms: _461  and  _462
REMARK  191  A    between atoms: _461  and  _464
REMARK  192  A    between atoms: _464  and  _465
REMARK  193  A    between atoms: _465  and  _466
REMARK  194  A    between atoms: _468  and  _470
REMARK  195  A    between atoms: _470  and  _471
REMARK  196  A    between atoms: _470  and  _473
REMARK  197  A    between atoms: _473  and  _474
REMARK  198  A    between atoms: _477  and  _479
REMARK  199  A    between atoms: _479  and  _480
REMARK  200  A    between atoms: _479  and  _482
REMARK  201  A    between atoms: _482  and  _483
REMARK  202  A    between atoms: _483  and  _484
REMARK  203  A    between atoms: _484  and  _485
REMARK  204  A    between atoms: _494  and  _496
REMARK  205  A    between atoms: _496  and  _497
REMARK  206  A    between atoms: _496  and  _499
REMARK  207  A    between atoms: _499  and  _500
REMARK  208  A    between atoms: _506  and  _508
REMARK  209  A    between atoms: _508  and  _509
REMARK  210  A    between atoms: _508  and  _511
REMARK  211  A    between atoms: _511  and  _512
REMARK  212  A    between atoms: _515  and  _517
REMARK  213  A    between atoms: _517  and  _518
REMARK  214  A    between atoms: _517  and  _520
REMARK  215  A    between atoms: _520  and  _521
REMARK  216  A    between atoms: _524  and  _526
REMARK  217  A    between atoms: _526  and  _527
REMARK  218  A    between atoms: _526  and  _529
REMARK  219  A    between atoms: _529  and  _530
REMARK  220  A    between atoms: _536  and  _538
REMARK  221  A    between atoms: _538  and  _539
REMARK  222  A    between atoms: _538  and  _541
REMARK  223  A    between atoms: _541  and  _542
REMARK  224  A    between atoms: _542  and  _543
REMARK  225  A    between atoms: _545  and  _547
REMARK  226  A    between atoms: _547  and  _548
REMARK  227  A    between atoms: _547  and  _550
REMARK  228  A    between atoms: _550  and  _551
REMARK  229  A    between atoms: _551  and  _552
REMARK  230  A    between atoms: _556  and  _557
REMARK  231  A    between atoms: _562  and  _564
REMARK  232  A    between atoms: _564  and  _565
REMARK  233  A    between atoms: _564  and  _567
REMARK  234  A    between atoms: _567  and  _568
REMARK  235  A    between atoms: _568  and  _569
REMARK  236  A    between atoms: _569  and  _570
REMARK  237  A    between atoms: _570  and  _571
REMARK  238  A    between atoms: _575  and  _577
REMARK  239  A    between atoms: _577  and  _578
REMARK  240  A    between atoms: _577  and  _580
REMARK  241  A    between atoms: _580  and  _581
REMARK  242  A    between atoms: _587  and  _589
REMARK  243  A    between atoms: _589  and  _590
REMARK  244  A    between atoms: _589  and  _592
REMARK  245  A    between atoms: _592  and  _593
REMARK  246  A    between atoms: _596  and  _598
REMARK  247  A    between atoms: _598  and  _599
REMARK  248  A    between atoms: _598  and  _601
REMARK  249  A    between atoms: _601  and  _602
REMARK  250  A    between atoms: _605  and  _607
REMARK  251  A    between atoms: _607  and  _608
REMARK  252  A    between atoms: _607  and  _610
REMARK  253  A    between atoms: _613  and  _615
REMARK  254  A    between atoms: _615  and  _616
REMARK  255  A    between atoms: _615  and  _618
REMARK  256  A    between atoms: _618  and  _619
REMARK  257  A    between atoms: _624  and  _626
REMARK  258  A    between atoms: _626  and  _627
REMARK  259  A    between atoms: _626  and  _629
REMARK  260  A    between atoms: _629  and  _630
REMARK  261  A    between atoms: _633  and  _635
REMARK  262  A    between atoms: _635  and  _636
REMARK  263  A    between atoms: _635  and  _638
REMARK  264  A    between atoms: _638  and  _639
REMARK  265  A    between atoms: _642  and  _644
REMARK  266  A    between atoms: _644  and  _645
REMARK  267  A    between atoms: _644  and  _647
REMARK  268  A    between atoms: _647  and  _648
REMARK  269  A    between atoms: _651  and  _653
REMARK  270  A    between atoms: _653  and  _654
REMARK  271  A    between atoms: _653  and  _656
REMARK  272  A    between atoms: _656  and  _657
REMARK  273  A    between atoms: _662  and  _663
REMARK                            x       y       z     vdW  Elec       q    Type
REMARK                         _______ _______ _______ _____ _____    ______ ____
ROOT
ATOM      1  CG  TYR A   1      20.747   5.592  27.361  0.00  0.00    -0.020 A 
ATOM      2  CD2 TYR A   1      20.457   4.261  27.082  0.00  0.00    -0.001 A 
ATOM      3  CE2 TYR A   1      20.111   3.857  25.799  0.00  0.00    +0.036 A 
ATOM      4  CZ  TYR A   1      20.054   4.791  24.782  0.00  0.00    +0.134 A 
ATOM      5  CE1 TYR A   1      20.336   6.118  25.039  0.00  0.00    +0.036 A 
ATOM      6  CD1 TYR A   1      20.681   6.509  26.321  0.00  0.00    -0.001 A 
ENDROOT
BRANCH   4   7
ATOM      7  OH  TYR A   1      19.727   4.406  23.502  0.00  0.00    -0.506 OA
ATOM      8  HH  TYR A   1      18.824   4.000  23.501  0.00  0.00    +0.292 HD
ENDBRANCH   4   7
BRANCH   1   9
ATOM      9  CB  TYR A   1      21.121   6.032  28.756  0.00  0.00    +0.051 C 
BRANCH   9  10
ATOM     10  CA  TYR A   1      20.211   5.473  29.853  0.00  0.00    +0.137 C 
BRANCH  10  11
ATOM     11  N   TYR A   1      18.861   6.014  29.720  0.00  0.00    -0.239 NA
ATOM     12  H   TYR A   1      18.734   6.971  29.332  0.00  0.00    +0.142 HD
ENDBRANCH  10  11
BRANCH  10  13
ATOM     13  C   TYR A   1      20.852   5.762  31.209  0.00  0.00    +0.224 C 
ATOM     14  O   TYR A   1      21.854   5.144  31.564  0.00  0.00    -0.287 OA
ENDBRANCH  10  13
ENDBRANCH   9  10
ENDBRANCH   1   9
TORSDOF 5
REMARK  Name = ../refined-set-2016/2p4y/2p4y_pocket.pdb
REMARK  273 active torsions:
REMARK  status: ('A' for Active; 'I' for Inactive)
REMARK    1  A    between atoms: _1  and  _3
REMARK    2  A    between atoms: _3  and  _4
REMARK    3  A    between atoms: _3  and  _6
REMARK    4  A    between atoms: _6  and  _7
REMARK    5  A    between atoms: _12  and  _13
REMARK    6  A    between atoms: _15  and  _17
REMARK    7  A    between atoms: _17  and  _18
REMARK    8  A    between atoms: _17  and  _20
REMARK    9  A    between atoms: _20  and  _21
REMARK   10  A    between atoms: _23  and  _25
REMARK   11  A    between atoms: _25  and  _26
REMARK   12  A    between atoms: _25  and  _28
REMARK   13  A    between atoms: _28  and  _29
REMARK   14  A    between atoms: _36  and  _37
REMARK   15  A    between atoms: _42  and  _44
REMARK   16  A    between atoms: _44  and  _45
REMARK   17  A    between atoms: _44  and  _47
REMARK   18  A    between atoms: _47  and  _48
REMARK   19  A    between atoms: _51  and  _53
REMARK   20  A    between atoms: _53  and  _54
REMARK   21  A    between atoms: _53  and  _56
REMARK   22  A    between atoms: _56  and  _57
REMARK   23  A    between atoms: _60  and  _62
REMARK   24  A    between atoms: _62  and  _63
REMARK   25  A    between atoms: _62  and  _65
REMARK   26  A    between atoms: _65  and  _66
REMARK   27  A    between atoms: _69  and  _71
REMARK   28  A    between atoms: _71  and  _72
REMARK   29  A    between atoms: _71  and  _74
REMARK   30  A    between atoms: _74  and  _75
REMARK   31  A    between atoms: _75  and  _76
REMARK   32  A    between atoms: _76  and  _77
REMARK   33  A    between atoms: _86  and  _88
REMARK   34  A    between atoms: _88  and  _89
REMARK   35  A    between atoms: _88  and  _91
REMARK   36  A    between atoms: _91  and  _92
REMARK   37  A    between atoms: _95  and  _97
REMARK   38  A    between atoms: _97  and  _98
REMARK   39  A    between atoms: _97  and  _100
REMARK   40  A    between atoms: _100  and  _101
REMARK   41  A    between atoms: _107  and  _109
REMARK   42  A    between atoms: _109  and  _110
REMARK   43  A    between atoms: _109  and  _112
REMARK   44  A    between atoms: _112  and  _113
REMARK   45  A    between atoms: _113  and  _114
REMARK   46  A    between atoms: _119  and  _121
REMARK   47  A    between atoms: _121  and  _122
REMARK   48  A    between atoms: _124  and  _126
REMARK   49  A    between atoms: _126  and  _127
REMARK   50  A    between atoms: _126  and  _129
REMARK   51  A    between atoms: _131  and  _133
REMARK   52  A    between atoms: _133  and  _134
REMARK   53  A    between atoms: _133  and  _136
REMARK   54  A    between atoms: _136  and  _137
REMARK   55  A    between atoms: _137  and  _138
REMARK   56  A    between atoms: _143  and  _145
REMARK   57  A    between atoms: _145  and  _146
REMARK   58  A    between atoms: _145  and  _148
REMARK   59  A    between atoms: _148  and  _149
REMARK   60  A    between atoms: _155  and  _157
REMARK   61  A    between atoms: _157  and  _158
REMARK   62  A    between atoms: _157  and  _160
REMARK   63  A    between atoms: _160  and  _161
REMARK   64  A    between atoms: _161  and  _162
REMARK   65  A    between atoms: _162  and  _163
REMARK   66  A    between atoms: _172  and  _174
REMARK   67  A    between atoms: _174  and  _175
REMARK   68  A    between atoms: _174  and  _177
REMARK   69  A    between atoms: _177  and  _178
REMARK   70  A    between atoms: _180  and  _182
REMARK   71  A    between atoms: _182  and  _183
REMARK   72  A    between atoms: _182  and  _185
REMARK   73  A    between atoms: _188  and  _190
REMARK   74  A    between atoms: _190  and  _191
REMARK   75  A    between atoms: _190  and  _193
REMARK   76  A    between atoms: _193  and  _194
REMARK   77  A    between atoms: _194  and  _195
REMARK   78  A    between atoms: _198  and  _200
REMARK   79  A    between atoms: _200  and  _201
REMARK   80  A    between atoms: _204  and  _206
REMARK   81  A    between atoms: _206  and  _207
REMARK   82  A    between atoms: _206  and  _209
REMARK   83  A    between atoms: _212  and  _214
REMARK   84  A    between atoms: _214  and  _215
REMARK   85  A    between atoms: _214  and  _217
REMARK   86  A    between atoms: _217  and  _218
REMARK   87  A    between atoms: _218  and  _219
REMARK   88  A    between atoms: _224  and  _226
REMARK   89  A    between atoms: _226  and  _227
REMARK   90  A    between atoms: _226  and  _229
REMARK   91  A    between atoms: _229  and  _230
REMARK   92  A    between atoms: _230  and  _231
REMARK   93  A    between atoms: _234  and  _236
REMARK   94  A    between atoms: _236  and  _237
REMARK   95  A    between atoms: _236  and  _239
REMARK   96  A    between atoms: _239  and  _240
REMARK   97  A    between atoms: _243  and  _245
REMARK   98  A    between atoms: _245  and  _246
REMARK   99  A    between atoms: _245  and  _248
REMARK  100  A    between atoms: _248  and  _249
REMARK  101  A    between atoms: _252  and  _254
REMARK  102  A    between atoms: _254  and  _255
REMARK  103  A    between atoms: _254  and  _257
REMARK  104  A    between atoms: _257  and  _258
REMARK  105  A    between atoms: _263  and  _264
REMARK  106  A    between atoms: _266  and  _268
REMARK  107  A    between atoms: _268  and  _269
REMARK  108  A    between atoms: _268  and  _271
REMARK  109  A    between atoms: _274  and  _276
REMARK  110  A    between atoms: _276  and  _277
REMARK  111  A    between atoms: _276  and  _279
REMARK  112  A    between atoms: _279  and  _280
REMARK  113  A    between atoms: _285  and  _287
REMARK  114  A    between atoms: _287  and  _288
REMARK  115  A    between atoms: _287  and  _290
REMARK  116  A    between atoms: _290  and  _291
REMARK  117  A    between atoms: _294  and  _296
REMARK  118  A    between atoms: _296  and  _297
REMARK  119  A    between atoms: _296  and  _299
REMARK  120  A    between atoms: _299  and  _300
REMARK  121  A    between atoms: _303  and  _305
REMARK  122  A    between atoms: _305  and  _306
REMARK  123  A    between atoms: _305  and  _308
REMARK  124  A    between atoms: _308  and  _309
REMARK  125  A    between atoms: _314  and  _315
REMARK  126  A    between atoms: _317  and  _319
REMARK  127  A    between atoms: _319  and  _320
REMARK  128  A    between atoms: _319  and  _322
REMARK  129  A    between atoms: _322  and  _323
REMARK  130  A    between atoms: _326  and  _328
REMARK  131  A    between atoms: _328  and  _329
REMARK  132  A    between atoms: _328  and  _331
REMARK  133  A    between atoms: _331  and  _332
REMARK  134  A    between atoms: _332  and  _333
REMARK  135  A    between atoms: _335  and  _337
REMARK  136  A    between atoms: _337  and  _338
REMARK  137  A    between atoms: _337  and  _340
REMARK  138  A    between atoms: _340  and  _341
REMARK  139  A    between atoms: _344  and  _346
REMARK  140  A    between atoms: _346  and  _347
REMARK  141  A    between atoms: _350  and  _352
REMARK  142  A    between atoms: _352  and  _353
REMARK  143  A    between atoms: _352  and  _355
REMARK  144  A    between atoms: _355  and  _356
REMARK  145  A    between atoms: _358  and  _360
REMARK  146  A    between atoms: _360  and  _361
REMARK  147  A    between atoms: _360  and  _363
REMARK  148  A    between atoms: _363  and  _364
REMARK  149  A    between atoms: _367  and  _369
REMARK  150  A    between atoms: _369  and  _370
REMARK  151  A    between atoms: _369  and  _372
REMARK  152  A    between atoms: _372  and  _373
REMARK  153  A    between atoms: _373  and  _374
REMARK  154  A    between atoms: _376  and  _378
REMARK  155  A    between atoms: _378  and  _379
REMARK  156  A    between atoms: _381  and  _383
REMARK  157  A    between atoms: _383  and  _384
REMARK  158  A    between atoms: _383  and  _386
REMARK  159  A    between atoms: _389  and  _391
REMARK  160  A    between atoms: _391  and  _392
REMARK  161  A    between atoms: _391  and  _394
REMARK  162  A    between atoms: _394  and  _395
REMARK  163  A    between atoms: _398  and  _400
REMARK  164  A    between atoms: _400  and  _401
REMARK  165  A    between atoms: _400  and  _403
REMARK  166  A    between atoms: _403  and  _404
REMARK  167  A    between atoms: _407  and  _409
REMARK  168  A    between atoms: _409  and  _410
REMARK  169  A    between atoms: _409  and  _412
REMARK  170  A    between atoms: _412  and  _413
REMARK  171  A    between atoms: _415  and  _417
REMARK  172  A    between atoms: _417  and  _418
REMARK  173  A    between atoms: _417  and  _420
REMARK  174  A    between atoms: _420  and  _421
REMARK  175  A    between atoms: _421  and  _422
REMARK  176  A    between atoms: _425  and  _427
REMARK  177  A    between atoms: _427  and  _428
REMARK  178  A    between atoms: _430  and  _432
REMARK  179  A    between atoms: _432  and  _433
REMARK  180  A    between atoms: _432  and  _435
REMARK  181  A    between atoms: _435  and  _436
REMARK  182  A    between atoms: _436  and  _437
REMARK  183  A    between atoms: _442  and  _444
REMARK  184  A    between atoms: _444  and  _445
REMARK  185  A    between atoms: _447  and  _449
REMARK  186  A    between atoms: _449  and  _450
REMARK  187  A    between atoms: _449  and  _452
REMARK  188  A    between atoms: _452  and  _453
REMARK  189  A    between atoms: _459  and  _461
REMARK  190  A    between atoms: _461  and  _462
REMARK  191  A    between atoms: _461  and  _464
REMARK  192  A    between atoms: _464  and  _465
REMARK  193  A    between atoms: _465  and  _466
REMARK  194  A    between atoms: _468  and  _470
REMARK  195  A    between atoms: _470  and  _471
REMARK  196  A    between atoms: _470  and  _473
REMARK  197  A    between atoms: _473  and  _474
REMARK  198  A    between atoms: _477  and  _479
REMARK  199  A    between atoms: _479  and  _480
REMARK  200  A    between atoms: _479  and  _482
REMARK  201  A    between atoms: _482  and  _483
REMARK  202  A    between atoms: _483  and  _484
REMARK  203  A    between atoms: _484  and  _485
REMARK  204  A    between atoms: _494  and  _496
REMARK  205  A    between atoms: _496  and  _497
REMARK  206  A    between atoms: _496  and  _499
REMARK  207  A    between atoms: _499  and  _500
REMARK  208  A    between atoms: _506  and  _508
REMARK  209  A    between atoms: _508  and  _509
REMARK  210  A    between atoms: _508  and  _511
REMARK  211  A    between atoms: _511  and  _512
REMARK  212  A    between atoms: _515  and  _517
REMARK  213  A    between atoms: _517  and  _518
REMARK  214  A    between atoms: _517  and  _520
REMARK  215  A    between atoms: _520  and  _521
REMARK  216  A    between atoms: _524  and  _526
REMARK  217  A    between atoms: _526  and  _527
REMARK  218  A    between atoms: _526  and  _529
REMARK  219  A    between atoms: _529  and  _530
REMARK  220  A    between atoms: _536  and  _538
REMARK  221  A    between atoms: _538  and  _539
REMARK  222  A    between atoms: _538  and  _541
REMARK  223  A    between atoms: _541  and  _542
REMARK  224  A    between atoms: _542  and  _543
REMARK  225  A    between atoms: _545  and  _547
REMARK  226  A    between atoms: _547  and  _548
REMARK  227  A    between atoms: _547  and  _550
REMARK  228  A    between atoms: _550  and  _551
REMARK  229  A    between atoms: _551  and  _552
REMARK  230  A    between atoms: _556  and  _557
REMARK  231  A    between atoms: _562  and  _564
REMARK  232  A    between atoms: _564  and  _565
REMARK  233  A    between atoms: _564  and  _567
REMARK  234  A    between atoms: _567  and  _568
REMARK  235  A    between atoms: _568  and  _569
REMARK  236  A    between atoms: _569  and  _570
REMARK  237  A    between atoms: _570  and  _571
REMARK  238  A    between atoms: _575  and  _577
REMARK  239  A    between atoms: _577  and  _578
REMARK  240  A    between atoms: _577  and  _580
REMARK  241  A    between atoms: _580  and  _581
REMARK  242  A    between atoms: _587  and  _589
REMARK  243  A    between atoms: _589  and  _590
REMARK  244  A    between atoms: _589  and  _592
REMARK  245  A    between atoms: _592  and  _593
REMARK  246  A    between atoms: _596  and  _598
REMARK  247  A    between atoms: _598  and  _599
REMARK  248  A    between atoms: _598  and  _601
REMARK  249  A    between atoms: _601  and  _602
REMARK  250  A    between atoms: _605  and  _607
REMARK  251  A    between atoms: _607  and  _608
REMARK  252  A    between atoms: _607  and  _610
REMARK  253  A    between atoms: _613  and  _615
REMARK  254  A    between atoms: _615  and  _616
REMARK  255  A    between atoms: _615  and  _618
REMARK  256  A    between atoms: _618  and  _619
REMARK  257  A    between atoms: _624  and  _626
REMARK  258  A    between atoms: _626  and  _627
REMARK  259  A    between atoms: _626  and  _629
REMARK  260  A    between atoms: _629  and  _630
REMARK  261  A    between atoms: _633  and  _635
REMARK  262  A    between atoms: _635  and  _636
REMARK  263  A    between atoms: _635  and  _638
REMARK  264  A    between atoms: _638  and  _639
REMARK  265  A    between atoms: _642  and  _644
REMARK  266  A    between atoms: _644  and  _645
REMARK  267  A    between atoms: _644  and  _647
REMARK  268  A    between atoms: _647  and  _648
REMARK  269  A    between atoms: _651  and  _653
REMARK  270  A    between atoms: _653  and  _654
REMARK  271  A    between atoms: _653  and  _656
REMARK  272  A    between atoms: _656  and  _657
REMARK  273  A    between atoms: _662  and  _663
REMARK                            x       y       z     vdW  Elec       q    Type
REMARK                         _______ _______ _______ _____ _____    ______ ____
ROOT
ATOM      1  O   HOH     1      24.456  -0.518  18.696  0.00  0.00    +0.000 OA
ENDROOT
TORSDOF 0
REMARK  Name = ../refined-set-2016/2p4y/2p4y_pocket.pdb
REMARK  273 active torsions:
REMARK  status: ('A' for Active; 'I' for Inactive)
REMARK    1  A    between atoms: _1  and  _3
REMARK    2  A    between atoms: _3  and  _4
REMARK    3  A    between atoms: _3  and  _6
REMARK    4  A    between atoms: _6  and  _7
REMARK    5  A    between atoms: _12  and  _13
REMARK    6  A    between atoms: _15  and  _17
REMARK    7  A    between atoms: _17  and  _18
REMARK    8  A    between atoms: _17  and  _20
REMARK    9  A    between atoms: _20  and  _21
REMARK   10  A    between atoms: _23  and  _25
REMARK   11  A    between atoms: _25  and  _26
REMARK   12  A    between atoms: _25  and  _28
REMARK   13  A    between atoms: _28  and  _29
REMARK   14  A    between atoms: _36  and  _37
REMARK   15  A    between atoms: _42  and  _44
REMARK   16  A    between atoms: _44  and  _45
REMARK   17  A    between atoms: _44  and  _47
REMARK   18  A    between atoms: _47  and  _48
REMARK   19  A    between atoms: _51  and  _53
REMARK   20  A    between atoms: _53  and  _54
REMARK   21  A    between atoms: _53  and  _56
REMARK   22  A    between atoms: _56  and  _57
REMARK   23  A    between atoms: _60  and  _62
REMARK   24  A    between atoms: _62  and  _63
REMARK   25  A    between atoms: _62  and  _65
REMARK   26  A    between atoms: _65  and  _66
REMARK   27  A    between atoms: _69  and  _71
REMARK   28  A    between atoms: _71  and  _72
REMARK   29  A    between atoms: _71  and  _74
REMARK   30  A    between atoms: _74  and  _75
REMARK   31  A    between atoms: _75  and  _76
REMARK   32  A    between atoms: _76  and  _77
REMARK   33  A    between atoms: _86  and  _88
REMARK   34  A    between atoms: _88  and  _89
REMARK   35  A    between atoms: _88  and  _91
REMARK   36  A    between atoms: _91  and  _92
REMARK   37  A    between atoms: _95  and  _97
REMARK   38  A    between atoms: _97  and  _98
REMARK   39  A    between atoms: _97  and  _100
REMARK   40  A    between atoms: _100  and  _101
REMARK   41  A    between atoms: _107  and  _109
REMARK   42  A    between atoms: _109  and  _110
REMARK   43  A    between atoms: _109  and  _112
REMARK   44  A    between atoms: _112  and  _113
REMARK   45  A    between atoms: _113  and  _114
REMARK   46  A    between atoms: _119  and  _121
REMARK   47  A    between atoms: _121  and  _122
REMARK   48  A    between atoms: _124  and  _126
REMARK   49  A    between atoms: _126  and  _127
REMARK   50  A    between atoms: _126  and  _129
REMARK   51  A    between atoms: _131  and  _133
REMARK   52  A    between atoms: _133  and  _134
REMARK   53  A    between atoms: _133  and  _136
REMARK   54  A    between atoms: _136  and  _137
REMARK   55  A    between atoms: _137  and  _138
REMARK   56  A    between atoms: _143  and  _145
REMARK   57  A    between atoms: _145  and  _146
REMARK   58  A    between atoms: _145  and  _148
REMARK   59  A    between atoms: _148  and  _149
REMARK   60  A    between atoms: _155  and  _157
REMARK   61  A    between atoms: _157  and  _158
REMARK   62  A    between atoms: _157  and  _160
REMARK   63  A    between atoms: _160  and  _161
REMARK   64  A    between atoms: _161  and  _162
REMARK   65  A    between atoms: _162  and  _163
REMARK   66  A    between atoms: _172  and  _174
REMARK   67  A    between atoms: _174  and  _175
REMARK   68  A    between atoms: _174  and  _177
REMARK   69  A    between atoms: _177  and  _178
REMARK   70  A    between atoms: _180  and  _182
REMARK   71  A    between atoms: _182  and  _183
REMARK   72  A    between atoms: _182  and  _185
REMARK   73  A    between atoms: _188  and  _190
REMARK   74  A    between atoms: _190  and  _191
REMARK   75  A    between atoms: _190  and  _193
REMARK   76  A    between atoms: _193  and  _194
REMARK   77  A    between atoms: _194  and  _195
REMARK   78  A    between atoms: _198  and  _200
REMARK   79  A    between atoms: _200  and  _201
REMARK   80  A    between atoms: _204  and  _206
REMARK   81  A    between atoms: _206  and  _207
REMARK   82  A    between atoms: _206  and  _209
REMARK   83  A    between atoms: _212  and  _214
REMARK   84  A    between atoms: _214  and  _215
REMARK   85  A    between atoms: _214  and  _217
REMARK   86  A    between atoms: _217  and  _218
REMARK   87  A    between atoms: _218  and  _219
REMARK   88  A    between atoms: _224  and  _226
REMARK   89  A    between atoms: _226  and  _227
REMARK   90  A    between atoms: _226  and  _229
REMARK   91  A    between atoms: _229  and  _230
REMARK   92  A    between atoms: _230  and  _231
REMARK   93  A    between atoms: _234  and  _236
REMARK   94  A    between atoms: _236  and  _237
REMARK   95  A    between atoms: _236  and  _239
REMARK   96  A    between atoms: _239  and  _240
REMARK   97  A    between atoms: _243  and  _245
REMARK   98  A    between atoms: _245  and  _246
REMARK   99  A    between atoms: _245  and  _248
REMARK  100  A    between atoms: _248  and  _249
REMARK  101  A    between atoms: _252  and  _254
REMARK  102  A    between atoms: _254  and  _255
REMARK  103  A    between atoms: _254  and  _257
REMARK  104  A    between atoms: _257  and  _258
REMARK  105  A    between atoms: _263  and  _264
REMARK  106  A    between atoms: _266  and  _268
REMARK  107  A    between atoms: _268  and  _269
REMARK  108  A    between atoms: _268  and  _271
REMARK  109  A    between atoms: _274  and  _276
REMARK  110  A    between atoms: _276  and  _277
REMARK  111  A    between atoms: _276  and  _279
REMARK  112  A    between atoms: _279  and  _280
REMARK  113  A    between atoms: _285  and  _287
REMARK  114  A    between atoms: _287  and  _288
REMARK  115  A    between atoms: _287  and  _290
REMARK  116  A    between atoms: _290  and  _291
REMARK  117  A    between atoms: _294  and  _296
REMARK  118  A    between atoms: _296  and  _297
REMARK  119  A    between atoms: _296  and  _299
REMARK  120  A    between atoms: _299  and  _300
REMARK  121  A    between atoms: _303  and  _305
REMARK  122  A    between atoms: _305  and  _306
REMARK  123  A    between atoms: _305  and  _308
REMARK  124  A    between atoms: _308  and  _309
REMARK  125  A    between atoms: _314  and  _315
REMARK  126  A    between atoms: _317  and  _319
REMARK  127  A    between atoms: _319  and  _320
REMARK  128  A    between atoms: _319  and  _322
REMARK  129  A    between atoms: _322  and  _323
REMARK  130  A    between atoms: _326  and  _328
REMARK  131  A    between atoms: _328  and  _329
REMARK  132  A    between atoms: _328  and  _331
REMARK  133  A    between atoms: _331  and  _332
REMARK  134  A    between atoms: _332  and  _333
REMARK  135  A    between atoms: _335  and  _337
REMARK  136  A    between atoms: _337  and  _338
REMARK  137  A    between atoms: _337  and  _340
REMARK  138  A    between atoms: _340  and  _341
REMARK  139  A    between atoms: _344  and  _346
REMARK  140  A    between atoms: _346  and  _347
REMARK  141  A    between atoms: _350  and  _352
REMARK  142  A    between atoms: _352  and  _353
REMARK  143  A    between atoms: _352  and  _355
REMARK  144  A    between atoms: _355  and  _356
REMARK  145  A    between atoms: _358  and  _360
REMARK  146  A    between atoms: _360  and  _361
REMARK  147  A    between atoms: _360  and  _363
REMARK  148  A    between atoms: _363  and  _364
REMARK  149  A    between atoms: _367  and  _369
REMARK  150  A    between atoms: _369  and  _370
REMARK  151  A    between atoms: _369  and  _372
REMARK  152  A    between atoms: _372  and  _373
REMARK  153  A    between atoms: _373  and  _374
REMARK  154  A    between atoms: _376  and  _378
REMARK  155  A    between atoms: _378  and  _379
REMARK  156  A    between atoms: _381  and  _383
REMARK  157  A    between atoms: _383  and  _384
REMARK  158  A    between atoms: _383  and  _386
REMARK  159  A    between atoms: _389  and  _391
REMARK  160  A    between atoms: _391  and  _392
REMARK  161  A    between atoms: _391  and  _394
REMARK  162  A    between atoms: _394  and  _395
REMARK  163  A    between atoms: _398  and  _400
REMARK  164  A    between atoms: _400  and  _401
REMARK  165  A    between atoms: _400  and  _403
REMARK  166  A    between atoms: _403  and  _404
REMARK  167  A    between atoms: _407  and  _409
REMARK  168  A    between atoms: _409  and  _410
REMARK  169  A    between atoms: _409  and  _412
REMARK  170  A    between atoms: _412  and  _413
REMARK  171  A    between atoms: _415  and  _417
REMARK  172  A    between atoms: _417  and  _418
REMARK  173  A    between atoms: _417  and  _420
REMARK  174  A    between atoms: _420  and  _421
REMARK  175  A    between atoms: _421  and  _422
REMARK  176  A    between atoms: _425  and  _427
REMARK  177  A    between atoms: _427  and  _428
REMARK  178  A    between atoms: _430  and  _432
REMARK  179  A    between atoms: _432  and  _433
REMARK  180  A    between atoms: _432  and  _435
REMARK  181  A    between atoms: _435  and  _436
REMARK  182  A    between atoms: _436  and  _437
REMARK  183  A    between atoms: _442  and  _444
REMARK  184  A    between atoms: _444  and  _445
REMARK  185  A    between atoms: _447  and  _449
REMARK  186  A    between atoms: _449  and  _450
REMARK  187  A    between atoms: _449  and  _452
REMARK  188  A    between atoms: _452  and  _453
REMARK  189  A    between atoms: _459  and  _461
REMARK  190  A    between atoms: _461  and  _462
REMARK  191  A    between atoms: _461  and  _464
REMARK  192  A    between atoms: _464  and  _465
REMARK  193  A    between atoms: _465  and  _466
REMARK  194  A    between atoms: _468  and  _470
REMARK  195  A    between atoms: _470  and  _471
REMARK  196  A    between atoms: _470  and  _473
REMARK  197  A    between atoms: _473  and  _474
REMARK  198  A    between atoms: _477  and  _479
REMARK  199  A    between atoms: _479  and  _480
REMARK  200  A    between atoms: _479  and  _482
REMARK  201  A    between atoms: _482  and  _483
REMARK  202  A    between atoms: _483  and  _484
REMARK  203  A    between atoms: _484  and  _485
REMARK  204  A    between atoms: _494  and  _496
REMARK  205  A    between atoms: _496  and  _497
REMARK  206  A    between atoms: _496  and  _499
REMARK  207  A    between atoms: _499  and  _500
REMARK  208  A    between atoms: _506  and  _508
REMARK  209  A    between atoms: _508  and  _509
REMARK  210  A    between atoms: _508  and  _511
REMARK  211  A    between atoms: _511  and  _512
REMARK  212  A    between atoms: _515  and  _517
REMARK  213  A    between atoms: _517  and  _518
REMARK  214  A    between atoms: _517  and  _520
REMARK  215  A    between atoms: _520  and  _521
REMARK  216  A    between atoms: _524  and  _526
REMARK  217  A    between atoms: _526  and  _527
REMARK  218  A    between atoms: _526  and  _529
REMARK  219  A    between atoms: _529  and  _530
REMARK  220  A    between atoms: _536  and  _538
REMARK  221  A    between atoms: _538  and  _539
REMARK  222  A    between atoms: _538  and  _541
REMARK  223  A    between atoms: _541  and  _542
REMARK  224  A    between atoms: _542  and  _543
REMARK  225  A    between atoms: _545  and  _547
REMARK  226  A    between atoms: _547  and  _548
REMARK  227  A    between atoms: _547  and  _550
REMARK  228  A    between atoms: _550  and  _551
REMARK  229  A    between atoms: _551  and  _552
REMARK  230  A    between atoms: _556  and  _557
REMARK  231  A    between atoms: _562  and  _564
REMARK  232  A    between atoms: _564  and  _565
REMARK  233  A    between atoms: _564  and  _567
REMARK  234  A    between atoms: _567  and  _568
REMARK  235  A    between atoms: _568  and  _569
REMARK  236  A    between atoms: _569  and  _570
REMARK  237  A    between atoms: _570  and  _571
REMARK  238  A    between atoms: _575  and  _577
REMARK  239  A    between atoms: _577  and  _578
REMARK  240  A    between atoms: _577  and  _580
REMARK  241  A    between atoms: _580  and  _581
REMARK  242  A    between atoms: _587  and  _589
REMARK  243  A    between atoms: _589  and  _590
REMARK  244  A    between atoms: _589  and  _592
REMARK  245  A    between atoms: _592  and  _593
REMARK  246  A    between atoms: _596  and  _598
REMARK  247  A    between atoms: _598  and  _599
REMARK  248  A    between atoms: _598  and  _601
REMARK  249  A    between atoms: _601  and  _602
REMARK  250  A    between atoms: _605  and  _607
REMARK  251  A    between atoms: _607  and  _608
REMARK  252  A    between atoms: _607  and  _610
REMARK  253  A    between atoms: _613  and  _615
REMARK  254  A    between atoms: _615  and  _616
REMARK  255  A    between atoms: _615  and  _618
REMARK  256  A    between atoms: _618  and  _619
REMARK  257  A    between atoms: _624  and  _626
REMARK  258  A    between atoms: _626  and  _627
REMARK  259  A    between atoms: _626  and  _629
REMARK  260  A    between atoms: _629  and  _630
REMARK  261  A    between atoms: _633  and  _635
REMARK  262  A    between atoms: _635  and  _636
REMARK  263  A    between atoms: _635  and  _638
REMARK  264  A    between atoms: _638  and  _639
REMARK  265  A    between atoms: _642  and  _644
REMARK  266  A    between atoms: _644  and  _645
REMARK  267  A    between atoms: _644  and  _647
REMARK  268  A    between atoms: _647  and  _648
REMARK  269  A    between atoms: _651  and  _653
REMARK  270  A    between atoms: _653  and  _654
REMARK  271  A    between atoms: _653  and  _656
REMARK  272  A    between atoms: _656  and  _657
REMARK  273  A    between atoms: _662  and  _663
REMARK                            x       y       z     vdW  Elec       q    Type
REMARK                         _______ _______ _______ _____ _____    ______ ____
ROOT
ATOM      1  O   HOH     1       7.459  -3.613  12.535  0.00  0.00    +0.000 OA
ENDROOT
TORSDOF 0
REMARK  Name = ../refined-set-2016/2p4y/2p4y_pocket.pdb
REMARK  273 active torsions:
REMARK  status: ('A' for Active; 'I' for Inactive)
REMARK    1  A    between atoms: _1  and  _3
REMARK    2  A    between atoms: _3  and  _4
REMARK    3  A    between atoms: _3  and  _6
REMARK    4  A    between atoms: _6  and  _7
REMARK    5  A    between atoms: _12  and  _13
REMARK    6  A    between atoms: _15  and  _17
REMARK    7  A    between atoms: _17  and  _18
REMARK    8  A    between atoms: _17  and  _20
REMARK    9  A    between atoms: _20  and  _21
REMARK   10  A    between atoms: _23  and  _25
REMARK   11  A    between atoms: _25  and  _26
REMARK   12  A    between atoms: _25  and  _28
REMARK   13  A    between atoms: _28  and  _29
REMARK   14  A    between atoms: _36  and  _37
REMARK   15  A    between atoms: _42  and  _44
REMARK   16  A    between atoms: _44  and  _45
REMARK   17  A    between atoms: _44  and  _47
REMARK   18  A    between atoms: _47  and  _48
REMARK   19  A    between atoms: _51  and  _53
REMARK   20  A    between atoms: _53  and  _54
REMARK   21  A    between atoms: _53  and  _56
REMARK   22  A    between atoms: _56  and  _57
REMARK   23  A    between atoms: _60  and  _62
REMARK   24  A    between atoms: _62  and  _63
REMARK   25  A    between atoms: _62  and  _65
REMARK   26  A    between atoms: _65  and  _66
REMARK   27  A    between atoms: _69  and  _71
REMARK   28  A    between atoms: _71  and  _72
REMARK   29  A    between atoms: _71  and  _74
REMARK   30  A    between atoms: _74  and  _75
REMARK   31  A    between atoms: _75  and  _76
REMARK   32  A    between atoms: _76  and  _77
REMARK   33  A    between atoms: _86  and  _88
REMARK   34  A    between atoms: _88  and  _89
REMARK   35  A    between atoms: _88  and  _91
REMARK   36  A    between atoms: _91  and  _92
REMARK   37  A    between atoms: _95  and  _97
REMARK   38  A    between atoms: _97  and  _98
REMARK   39  A    between atoms: _97  and  _100
REMARK   40  A    between atoms: _100  and  _101
REMARK   41  A    between atoms: _107  and  _109
REMARK   42  A    between atoms: _109  and  _110
REMARK   43  A    between atoms: _109  and  _112
REMARK   44  A    between atoms: _112  and  _113
REMARK   45  A    between atoms: _113  and  _114
REMARK   46  A    between atoms: _119  and  _121
REMARK   47  A    between atoms: _121  and  _122
REMARK   48  A    between atoms: _124  and  _126
REMARK   49  A    between atoms: _126  and  _127
REMARK   50  A    between atoms: _126  and  _129
REMARK   51  A    between atoms: _131  and  _133
REMARK   52  A    between atoms: _133  and  _134
REMARK   53  A    between atoms: _133  and  _136
REMARK   54  A    between atoms: _136  and  _137
REMARK   55  A    between atoms: _137  and  _138
REMARK   56  A    between atoms: _143  and  _145
REMARK   57  A    between atoms: _145  and  _146
REMARK   58  A    between atoms: _145  and  _148
REMARK   59  A    between atoms: _148  and  _149
REMARK   60  A    between atoms: _155  and  _157
REMARK   61  A    between atoms: _157  and  _158
REMARK   62  A    between atoms: _157  and  _160
REMARK   63  A    between atoms: _160  and  _161
REMARK   64  A    between atoms: _161  and  _162
REMARK   65  A    between atoms: _162  and  _163
REMARK   66  A    between atoms: _172  and  _174
REMARK   67  A    between atoms: _174  and  _175
REMARK   68  A    between atoms: _174  and  _177
REMARK   69  A    between atoms: _177  and  _178
REMARK   70  A    between atoms: _180  and  _182
REMARK   71  A    between atoms: _182  and  _183
REMARK   72  A    between atoms: _182  and  _185
REMARK   73  A    between atoms: _188  and  _190
REMARK   74  A    between atoms: _190  and  _191
REMARK   75  A    between atoms: _190  and  _193
REMARK   76  A    between atoms: _193  and  _194
REMARK   77  A    between atoms: _194  and  _195
REMARK   78  A    between atoms: _198  and  _200
REMARK   79  A    between atoms: _200  and  _201
REMARK   80  A    between atoms: _204  and  _206
REMARK   81  A    between atoms: _206  and  _207
REMARK   82  A    between atoms: _206  and  _209
REMARK   83  A    between atoms: _212  and  _214
REMARK   84  A    between atoms: _214  and  _215
REMARK   85  A    between atoms: _214  and  _217
REMARK   86  A    between atoms: _217  and  _218
REMARK   87  A    between atoms: _218  and  _219
REMARK   88  A    between atoms: _224  and  _226
REMARK   89  A    between atoms: _226  and  _227
REMARK   90  A    between atoms: _226  and  _229
REMARK   91  A    between atoms: _229  and  _230
REMARK   92  A    between atoms: _230  and  _231
REMARK   93  A    between atoms: _234  and  _236
REMARK   94  A    between atoms: _236  and  _237
REMARK   95  A    between atoms: _236  and  _239
REMARK   96  A    between atoms: _239  and  _240
REMARK   97  A    between atoms: _243  and  _245
REMARK   98  A    between atoms: _245  and  _246
REMARK   99  A    between atoms: _245  and  _248
REMARK  100  A    between atoms: _248  and  _249
REMARK  101  A    between atoms: _252  and  _254
REMARK  102  A    between atoms: _254  and  _255
REMARK  103  A    between atoms: _254  and  _257
REMARK  104  A    between atoms: _257  and  _258
REMARK  105  A    between atoms: _263  and  _264
REMARK  106  A    between atoms: _266  and  _268
REMARK  107  A    between atoms: _268  and  _269
REMARK  108  A    between atoms: _268  and  _271
REMARK  109  A    between atoms: _274  and  _276
REMARK  110  A    between atoms: _276  and  _277
REMARK  111  A    between atoms: _276  and  _279
REMARK  112  A    between atoms: _279  and  _280
REMARK  113  A    between atoms: _285  and  _287
REMARK  114  A    between atoms: _287  and  _288
REMARK  115  A    between atoms: _287  and  _290
REMARK  116  A    between atoms: _290  and  _291
REMARK  117  A    between atoms: _294  and  _296
REMARK  118  A    between atoms: _296  and  _297
REMARK  119  A    between atoms: _296  and  _299
REMARK  120  A    between atoms: _299  and  _300
REMARK  121  A    between atoms: _303  and  _305
REMARK  122  A    between atoms: _305  and  _306
REMARK  123  A    between atoms: _305  and  _308
REMARK  124  A    between atoms: _308  and  _309
REMARK  125  A    between atoms: _314  and  _315
REMARK  126  A    between atoms: _317  and  _319
REMARK  127  A    between atoms: _319  and  _320
REMARK  128  A    between atoms: _319  and  _322
REMARK  129  A    between atoms: _322  and  _323
REMARK  130  A    between atoms: _326  and  _328
REMARK  131  A    between atoms: _328  and  _329
REMARK  132  A    between atoms: _328  and  _331
REMARK  133  A    between atoms: _331  and  _332
REMARK  134  A    between atoms: _332  and  _333
REMARK  135  A    between atoms: _335  and  _337
REMARK  136  A    between atoms: _337  and  _338
REMARK  137  A    between atoms: _337  and  _340
REMARK  138  A    between atoms: _340  and  _341
REMARK  139  A    between atoms: _344  and  _346
REMARK  140  A    between atoms: _346  and  _347
REMARK  141  A    between atoms: _350  and  _352
REMARK  142  A    between atoms: _352  and  _353
REMARK  143  A    between atoms: _352  and  _355
REMARK  144  A    between atoms: _355  and  _356
REMARK  145  A    between atoms: _358  and  _360
REMARK  146  A    between atoms: _360  and  _361
REMARK  147  A    between atoms: _360  and  _363
REMARK  148  A    between atoms: _363  and  _364
REMARK  149  A    between atoms: _367  and  _369
REMARK  150  A    between atoms: _369  and  _370
REMARK  151  A    between atoms: _369  and  _372
REMARK  152  A    between atoms: _372  and  _373
REMARK  153  A    between atoms: _373  and  _374
REMARK  154  A    between atoms: _376  and  _378
REMARK  155  A    between atoms: _378  and  _379
REMARK  156  A    between atoms: _381  and  _383
REMARK  157  A    between atoms: _383  and  _384
REMARK  158  A    between atoms: _383  and  _386
REMARK  159  A    between atoms: _389  and  _391
REMARK  160  A    between atoms: _391  and  _392
REMARK  161  A    between atoms: _391  and  _394
REMARK  162  A    between atoms: _394  and  _395
REMARK  163  A    between atoms: _398  and  _400
REMARK  164  A    between atoms: _400  and  _401
REMARK  165  A    between atoms: _400  and  _403
REMARK  166  A    between atoms: _403  and  _404
REMARK  167  A    between atoms: _407  and  _409
REMARK  168  A    between atoms: _409  and  _410
REMARK  169  A    between atoms: _409  and  _412
REMARK  170  A    between atoms: _412  and  _413
REMARK  171  A    between atoms: _415  and  _417
REMARK  172  A    between atoms: _417  and  _418
REMARK  173  A    between atoms: _417  and  _420
REMARK  174  A    between atoms: _420  and  _421
REMARK  175  A    between atoms: _421  and  _422
REMARK  176  A    between atoms: _425  and  _427
REMARK  177  A    between atoms: _427  and  _428
REMARK  178  A    between atoms: _430  and  _432
REMARK  179  A    between atoms: _432  and  _433
REMARK  180  A    between atoms: _432  and  _435
REMARK  181  A    between atoms: _435  and  _436
REMARK  182  A    between atoms: _436  and  _437
REMARK  183  A    between atoms: _442  and  _444
REMARK  184  A    between atoms: _444  and  _445
REMARK  185  A    between atoms: _447  and  _449
REMARK  186  A    between atoms: _449  and  _450
REMARK  187  A    between atoms: _449  and  _452
REMARK  188  A    between atoms: _452  and  _453
REMARK  189  A    between atoms: _459  and  _461
REMARK  190  A    between atoms: _461  and  _462
REMARK  191  A    between atoms: _461  and  _464
REMARK  192  A    between atoms: _464  and  _465
REMARK  193  A    between atoms: _465  and  _466
REMARK  194  A    between atoms: _468  and  _470
REMARK  195  A    between atoms: _470  and  _471
REMARK  196  A    between atoms: _470  and  _473
REMARK  197  A    between atoms: _473  and  _474
REMARK  198  A    between atoms: _477  and  _479
REMARK  199  A    between atoms: _479  and  _480
REMARK  200  A    between atoms: _479  and  _482
REMARK  201  A    between atoms: _482  and  _483
REMARK  202  A    between atoms: _483  and  _484
REMARK  203  A    between atoms: _484  and  _485
REMARK  204  A    between atoms: _494  and  _496
REMARK  205  A    between atoms: _496  and  _497
REMARK  206  A    between atoms: _496  and  _499
REMARK  207  A    between atoms: _499  and  _500
REMARK  208  A    between atoms: _506  and  _508
REMARK  209  A    between atoms: _508  and  _509
REMARK  210  A    between atoms: _508  and  _511
REMARK  211  A    between atoms: _511  and  _512
REMARK  212  A    between atoms: _515  and  _517
REMARK  213  A    between atoms: _517  and  _518
REMARK  214  A    between atoms: _517  and  _520
REMARK  215  A    between atoms: _520  and  _521
REMARK  216  A    between atoms: _524  and  _526
REMARK  217  A    between atoms: _526  and  _527
REMARK  218  A    between atoms: _526  and  _529
REMARK  219  A    between atoms: _529  and  _530
REMARK  220  A    between atoms: _536  and  _538
REMARK  221  A    between atoms: _538  and  _539
REMARK  222  A    between atoms: _538  and  _541
REMARK  223  A    between atoms: _541  and  _542
REMARK  224  A    between atoms: _542  and  _543
REMARK  225  A    between atoms: _545  and  _547
REMARK  226  A    between atoms: _547  and  _548
REMARK  227  A    between atoms: _547  and  _550
REMARK  228  A    between atoms: _550  and  _551
REMARK  229  A    between atoms: _551  and  _552
REMARK  230  A    between atoms: _556  and  _557
REMARK  231  A    between atoms: _562  and  _564
REMARK  232  A    between atoms: _564  and  _565
REMARK  233  A    between atoms: _564  and  _567
REMARK  234  A    between atoms: _567  and  _568
REMARK  235  A    between atoms: _568  and  _569
REMARK  236  A    between atoms: _569  and  _570
REMARK  237  A    between atoms: _570  and  _571
REMARK  238  A    between atoms: _575  and  _577
REMARK  239  A    between atoms: _577  and  _578
REMARK  240  A    between atoms: _577  and  _580
REMARK  241  A    between atoms: _580  and  _581
REMARK  242  A    between atoms: _587  and  _589
REMARK  243  A    between atoms: _589  and  _590
REMARK  244  A    between atoms: _589  and  _592
REMARK  245  A    between atoms: _592  and  _593
REMARK  246  A    between atoms: _596  and  _598
REMARK  247  A    between atoms: _598  and  _599
REMARK  248  A    between atoms: _598  and  _601
REMARK  249  A    between atoms: _601  and  _602
REMARK  250  A    between atoms: _605  and  _607
REMARK  251  A    between atoms: _607  and  _608
REMARK  252  A    between atoms: _607  and  _610
REMARK  253  A    between atoms: _613  and  _615
REMARK  254  A    between atoms: _615  and  _616
REMARK  255  A    between atoms: _615  and  _618
REMARK  256  A    between atoms: _618  and  _619
REMARK  257  A    between atoms: _624  and  _626
REMARK  258  A    between atoms: _626  and  _627
REMARK  259  A    between atoms: _626  and  _629
REMARK  260  A    between atoms: _629  and  _630
REMARK  261  A    between atoms: _633  and  _635
REMARK  262  A    between atoms: _635  and  _636
REMARK  263  A    between atoms: _635  and  _638
REMARK  264  A    between atoms: _638  and  _639
REMARK  265  A    between atoms: _642  and  _644
REMARK  266  A    between atoms: _644  and  _645
REMARK  267  A    between atoms: _644  and  _647
REMARK  268  A    between atoms: _647  and  _648
REMARK  269  A    between atoms: _651  and  _653
REMARK  270  A    between atoms: _653  and  _654
REMARK  271  A    between atoms: _653  and  _656
REMARK  272  A    between atoms: _656  and  _657
REMARK  273  A    between atoms: _662  and  _663
REMARK                            x       y       z     vdW  Elec       q    Type
REMARK                         _______ _______ _______ _____ _____    ______ ____
ROOT
ATOM      1  O   HOH     1      19.714   1.345  23.529  0.00  0.00    +0.000 OA
ENDROOT
TORSDOF 0
REMARK  Name = ../refined-set-2016/2p4y/2p4y_pocket.pdb
REMARK  273 active torsions:
REMARK  status: ('A' for Active; 'I' for Inactive)
REMARK    1  A    between atoms: _1  and  _3
REMARK    2  A    between atoms: _3  and  _4
REMARK    3  A    between atoms: _3  and  _6
REMARK    4  A    between atoms: _6  and  _7
REMARK    5  A    between atoms: _12  and  _13
REMARK    6  A    between atoms: _15  and  _17
REMARK    7  A    between atoms: _17  and  _18
REMARK    8  A    between atoms: _17  and  _20
REMARK    9  A    between atoms: _20  and  _21
REMARK   10  A    between atoms: _23  and  _25
REMARK   11  A    between atoms: _25  and  _26
REMARK   12  A    between atoms: _25  and  _28
REMARK   13  A    between atoms: _28  and  _29
REMARK   14  A    between atoms: _36  and  _37
REMARK   15  A    between atoms: _42  and  _44
REMARK   16  A    between atoms: _44  and  _45
REMARK   17  A    between atoms: _44  and  _47
REMARK   18  A    between atoms: _47  and  _48
REMARK   19  A    between atoms: _51  and  _53
REMARK   20  A    between atoms: _53  and  _54
REMARK   21  A    between atoms: _53  and  _56
REMARK   22  A    between atoms: _56  and  _57
REMARK   23  A    between atoms: _60  and  _62
REMARK   24  A    between atoms: _62  and  _63
REMARK   25  A    between atoms: _62  and  _65
REMARK   26  A    between atoms: _65  and  _66
REMARK   27  A    between atoms: _69  and  _71
REMARK   28  A    between atoms: _71  and  _72
REMARK   29  A    between atoms: _71  and  _74
REMARK   30  A    between atoms: _74  and  _75
REMARK   31  A    between atoms: _75  and  _76
REMARK   32  A    between atoms: _76  and  _77
REMARK   33  A    between atoms: _86  and  _88
REMARK   34  A    between atoms: _88  and  _89
REMARK   35  A    between atoms: _88  and  _91
REMARK   36  A    between atoms: _91  and  _92
REMARK   37  A    between atoms: _95  and  _97
REMARK   38  A    between atoms: _97  and  _98
REMARK   39  A    between atoms: _97  and  _100
REMARK   40  A    between atoms: _100  and  _101
REMARK   41  A    between atoms: _107  and  _109
REMARK   42  A    between atoms: _109  and  _110
REMARK   43  A    between atoms: _109  and  _112
REMARK   44  A    between atoms: _112  and  _113
REMARK   45  A    between atoms: _113  and  _114
REMARK   46  A    between atoms: _119  and  _121
REMARK   47  A    between atoms: _121  and  _122
REMARK   48  A    between atoms: _124  and  _126
REMARK   49  A    between atoms: _126  and  _127
REMARK   50  A    between atoms: _126  and  _129
REMARK   51  A    between atoms: _131  and  _133
REMARK   52  A    between atoms: _133  and  _134
REMARK   53  A    between atoms: _133  and  _136
REMARK   54  A    between atoms: _136  and  _137
REMARK   55  A    between atoms: _137  and  _138
REMARK   56  A    between atoms: _143  and  _145
REMARK   57  A    between atoms: _145  and  _146
REMARK   58  A    between atoms: _145  and  _148
REMARK   59  A    between atoms: _148  and  _149
REMARK   60  A    between atoms: _155  and  _157
REMARK   61  A    between atoms: _157  and  _158
REMARK   62  A    between atoms: _157  and  _160
REMARK   63  A    between atoms: _160  and  _161
REMARK   64  A    between atoms: _161  and  _162
REMARK   65  A    between atoms: _162  and  _163
REMARK   66  A    between atoms: _172  and  _174
REMARK   67  A    between atoms: _174  and  _175
REMARK   68  A    between atoms: _174  and  _177
REMARK   69  A    between atoms: _177  and  _178
REMARK   70  A    between atoms: _180  and  _182
REMARK   71  A    between atoms: _182  and  _183
REMARK   72  A    between atoms: _182  and  _185
REMARK   73  A    between atoms: _188  and  _190
REMARK   74  A    between atoms: _190  and  _191
REMARK   75  A    between atoms: _190  and  _193
REMARK   76  A    between atoms: _193  and  _194
REMARK   77  A    between atoms: _194  and  _195
REMARK   78  A    between atoms: _198  and  _200
REMARK   79  A    between atoms: _200  and  _201
REMARK   80  A    between atoms: _204  and  _206
REMARK   81  A    between atoms: _206  and  _207
REMARK   82  A    between atoms: _206  and  _209
REMARK   83  A    between atoms: _212  and  _214
REMARK   84  A    between atoms: _214  and  _215
REMARK   85  A    between atoms: _214  and  _217
REMARK   86  A    between atoms: _217  and  _218
REMARK   87  A    between atoms: _218  and  _219
REMARK   88  A    between atoms: _224  and  _226
REMARK   89  A    between atoms: _226  and  _227
REMARK   90  A    between atoms: _226  and  _229
REMARK   91  A    between atoms: _229  and  _230
REMARK   92  A    between atoms: _230  and  _231
REMARK   93  A    between atoms: _234  and  _236
REMARK   94  A    between atoms: _236  and  _237
REMARK   95  A    between atoms: _236  and  _239
REMARK   96  A    between atoms: _239  and  _240
REMARK   97  A    between atoms: _243  and  _245
REMARK   98  A    between atoms: _245  and  _246
REMARK   99  A    between atoms: _245  and  _248
REMARK  100  A    between atoms: _248  and  _249
REMARK  101  A    between atoms: _252  and  _254
REMARK  102  A    between atoms: _254  and  _255
REMARK  103  A    between atoms: _254  and  _257
REMARK  104  A    between atoms: _257  and  _258
REMARK  105  A    between atoms: _263  and  _264
REMARK  106  A    between atoms: _266  and  _268
REMARK  107  A    between atoms: _268  and  _269
REMARK  108  A    between atoms: _268  and  _271
REMARK  109  A    between atoms: _274  and  _276
REMARK  110  A    between atoms: _276  and  _277
REMARK  111  A    between atoms: _276  and  _279
REMARK  112  A    between atoms: _279  and  _280
REMARK  113  A    between atoms: _285  and  _287
REMARK  114  A    between atoms: _287  and  _288
REMARK  115  A    between atoms: _287  and  _290
REMARK  116  A    between atoms: _290  and  _291
REMARK  117  A    between atoms: _294  and  _296
REMARK  118  A    between atoms: _296  and  _297
REMARK  119  A    between atoms: _296  and  _299
REMARK  120  A    between atoms: _299  and  _300
REMARK  121  A    between atoms: _303  and  _305
REMARK  122  A    between atoms: _305  and  _306
REMARK  123  A    between atoms: _305  and  _308
REMARK  124  A    between atoms: _308  and  _309
REMARK  125  A    between atoms: _314  and  _315
REMARK  126  A    between atoms: _317  and  _319
REMARK  127  A    between atoms: _319  and  _320
REMARK  128  A    between atoms: _319  and  _322
REMARK  129  A    between atoms: _322  and  _323
REMARK  130  A    between atoms: _326  and  _328
REMARK  131  A    between atoms: _328  and  _329
REMARK  132  A    between atoms: _328  and  _331
REMARK  133  A    between atoms: _331  and  _332
REMARK  134  A    between atoms: _332  and  _333
REMARK  135  A    between atoms: _335  and  _337
REMARK  136  A    between atoms: _337  and  _338
REMARK  137  A    between atoms: _337  and  _340
REMARK  138  A    between atoms: _340  and  _341
REMARK  139  A    between atoms: _344  and  _346
REMARK  140  A    between atoms: _346  and  _347
REMARK  141  A    between atoms: _350  and  _352
REMARK  142  A    between atoms: _352  and  _353
REMARK  143  A    between atoms: _352  and  _355
REMARK  144  A    between atoms: _355  and  _356
REMARK  145  A    between atoms: _358  and  _360
REMARK  146  A    between atoms: _360  and  _361
REMARK  147  A    between atoms: _360  and  _363
REMARK  148  A    between atoms: _363  and  _364
REMARK  149  A    between atoms: _367  and  _369
REMARK  150  A    between atoms: _369  and  _370
REMARK  151  A    between atoms: _369  and  _372
REMARK  152  A    between atoms: _372  and  _373
REMARK  153  A    between atoms: _373  and  _374
REMARK  154  A    between atoms: _376  and  _378
REMARK  155  A    between atoms: _378  and  _379
REMARK  156  A    between atoms: _381  and  _383
REMARK  157  A    between atoms: _383  and  _384
REMARK  158  A    between atoms: _383  and  _386
REMARK  159  A    between atoms: _389  and  _391
REMARK  160  A    between atoms: _391  and  _392
REMARK  161  A    between atoms: _391  and  _394
REMARK  162  A    between atoms: _394  and  _395
REMARK  163  A    between atoms: _398  and  _400
REMARK  164  A    between atoms: _400  and  _401
REMARK  165  A    between atoms: _400  and  _403
REMARK  166  A    between atoms: _403  and  _404
REMARK  167  A    between atoms: _407  and  _409
REMARK  168  A    between atoms: _409  and  _410
REMARK  169  A    between atoms: _409  and  _412
REMARK  170  A    between atoms: _412  and  _413
REMARK  171  A    between atoms: _415  and  _417
REMARK  172  A    between atoms: _417  and  _418
REMARK  173  A    between atoms: _417  and  _420
REMARK  174  A    between atoms: _420  and  _421
REMARK  175  A    between atoms: _421  and  _422
REMARK  176  A    between atoms: _425  and  _427
REMARK  177  A    between atoms: _427  and  _428
REMARK  178  A    between atoms: _430  and  _432
REMARK  179  A    between atoms: _432  and  _433
REMARK  180  A    between atoms: _432  and  _435
REMARK  181  A    between atoms: _435  and  _436
REMARK  182  A    between atoms: _436  and  _437
REMARK  183  A    between atoms: _442  and  _444
REMARK  184  A    between atoms: _444  and  _445
REMARK  185  A    between atoms: _447  and  _449
REMARK  186  A    between atoms: _449  and  _450
REMARK  187  A    between atoms: _449  and  _452
REMARK  188  A    between atoms: _452  and  _453
REMARK  189  A    between atoms: _459  and  _461
REMARK  190  A    between atoms: _461  and  _462
REMARK  191  A    between atoms: _461  and  _464
REMARK  192  A    between atoms: _464  and  _465
REMARK  193  A    between atoms: _465  and  _466
REMARK  194  A    between atoms: _468  and  _470
REMARK  195  A    between atoms: _470  and  _471
REMARK  196  A    between atoms: _470  and  _473
REMARK  197  A    between atoms: _473  and  _474
REMARK  198  A    between atoms: _477  and  _479
REMARK  199  A    between atoms: _479  and  _480
REMARK  200  A    between atoms: _479  and  _482
REMARK  201  A    between atoms: _482  and  _483
REMARK  202  A    between atoms: _483  and  _484
REMARK  203  A    between atoms: _484  and  _485
REMARK  204  A    between atoms: _494  and  _496
REMARK  205  A    between atoms: _496  and  _497
REMARK  206  A    between atoms: _496  and  _499
REMARK  207  A    between atoms: _499  and  _500
REMARK  208  A    between atoms: _506  and  _508
REMARK  209  A    between atoms: _508  and  _509
REMARK  210  A    between atoms: _508  and  _511
REMARK  211  A    between atoms: _511  and  _512
REMARK  212  A    between atoms: _515  and  _517
REMARK  213  A    between atoms: _517  and  _518
REMARK  214  A    between atoms: _517  and  _520
REMARK  215  A    between atoms: _520  and  _521
REMARK  216  A    between atoms: _524  and  _526
REMARK  217  A    between atoms: _526  and  _527
REMARK  218  A    between atoms: _526  and  _529
REMARK  219  A    between atoms: _529  and  _530
REMARK  220  A    between atoms: _536  and  _538
REMARK  221  A    between atoms: _538  and  _539
REMARK  222  A    between atoms: _538  and  _541
REMARK  223  A    between atoms: _541  and  _542
REMARK  224  A    between atoms: _542  and  _543
REMARK  225  A    between atoms: _545  and  _547
REMARK  226  A    between atoms: _547  and  _548
REMARK  227  A    between atoms: _547  and  _550
REMARK  228  A    between atoms: _550  and  _551
REMARK  229  A    between atoms: _551  and  _552
REMARK  230  A    between atoms: _556  and  _557
REMARK  231  A    between atoms: _562  and  _564
REMARK  232  A    between atoms: _564  and  _565
REMARK  233  A    between atoms: _564  and  _567
REMARK  234  A    between atoms: _567  and  _568
REMARK  235  A    between atoms: _568  and  _569
REMARK  236  A    between atoms: _569  and  _570
REMARK  237  A    between atoms: _570  and  _571
REMARK  238  A    between atoms: _575  and  _577
REMARK  239  A    between atoms: _577  and  _578
REMARK  240  A    between atoms: _577  and  _580
REMARK  241  A    between atoms: _580  and  _581
REMARK  242  A    between atoms: _587  and  _589
REMARK  243  A    between atoms: _589  and  _590
REMARK  244  A    between atoms: _589  and  _592
REMARK  245  A    between atoms: _592  and  _593
REMARK  246  A    between atoms: _596  and  _598
REMARK  247  A    between atoms: _598  and  _599
REMARK  248  A    between atoms: _598  and  _601
REMARK  249  A    between atoms: _601  and  _602
REMARK  250  A    between atoms: _605  and  _607
REMARK  251  A    between atoms: _607  and  _608
REMARK  252  A    between atoms: _607  and  _610
REMARK  253  A    between atoms: _613  and  _615
REMARK  254  A    between atoms: _615  and  _616
REMARK  255  A    between atoms: _615  and  _618
REMARK  256  A    between atoms: _618  and  _619
REMARK  257  A    between atoms: _624  and  _626
REMARK  258  A    between atoms: _626  and  _627
REMARK  259  A    between atoms: _626  and  _629
REMARK  260  A    between atoms: _629  and  _630
REMARK  261  A    between atoms: _633  and  _635
REMARK  262  A    between atoms: _635  and  _636
REMARK  263  A    between atoms: _635  and  _638
REMARK  264  A    between atoms: _638  and  _639
REMARK  265  A    between atoms: _642  and  _644
REMARK  266  A    between atoms: _644  and  _645
REMARK  267  A    between atoms: _644  and  _647
REMARK  268  A    between atoms: _647  and  _648
REMARK  269  A    between atoms: _651  and  _653
REMARK  270  A    between atoms: _653  and  _654
REMARK  271  A    between atoms: _653  and  _656
REMARK  272  A    between atoms: _656  and  _657
REMARK  273  A    between atoms: _662  and  _663
REMARK                            x       y       z     vdW  Elec       q    Type
REMARK                         _______ _______ _______ _____ _____    ______ ____
ROOT
ATOM      1  O   HOH     1       8.403  -0.853  12.320  0.00  0.00    +0.000 OA
ENDROOT
TORSDOF 0
REMARK  Name = ../refined-set-2016/2p4y/2p4y_pocket.pdb
REMARK  273 active torsions:
REMARK  status: ('A' for Active; 'I' for Inactive)
REMARK    1  A    between atoms: _1  and  _3
REMARK    2  A    between atoms: _3  and  _4
REMARK    3  A    between atoms: _3  and  _6
REMARK    4  A    between atoms: _6  and  _7
REMARK    5  A    between atoms: _12  and  _13
REMARK    6  A    between atoms: _15  and  _17
REMARK    7  A    between atoms: _17  and  _18
REMARK    8  A    between atoms: _17  and  _20
REMARK    9  A    between atoms: _20  and  _21
REMARK   10  A    between atoms: _23  and  _25
REMARK   11  A    between atoms: _25  and  _26
REMARK   12  A    between atoms: _25  and  _28
REMARK   13  A    between atoms: _28  and  _29
REMARK   14  A    between atoms: _36  and  _37
REMARK   15  A    between atoms: _42  and  _44
REMARK   16  A    between atoms: _44  and  _45
REMARK   17  A    between atoms: _44  and  _47
REMARK   18  A    between atoms: _47  and  _48
REMARK   19  A    between atoms: _51  and  _53
REMARK   20  A    between atoms: _53  and  _54
REMARK   21  A    between atoms: _53  and  _56
REMARK   22  A    between atoms: _56  and  _57
REMARK   23  A    between atoms: _60  and  _62
REMARK   24  A    between atoms: _62  and  _63
REMARK   25  A    between atoms: _62  and  _65
REMARK   26  A    between atoms: _65  and  _66
REMARK   27  A    between atoms: _69  and  _71
REMARK   28  A    between atoms: _71  and  _72
REMARK   29  A    between atoms: _71  and  _74
REMARK   30  A    between atoms: _74  and  _75
REMARK   31  A    between atoms: _75  and  _76
REMARK   32  A    between atoms: _76  and  _77
REMARK   33  A    between atoms: _86  and  _88
REMARK   34  A    between atoms: _88  and  _89
REMARK   35  A    between atoms: _88  and  _91
REMARK   36  A    between atoms: _91  and  _92
REMARK   37  A    between atoms: _95  and  _97
REMARK   38  A    between atoms: _97  and  _98
REMARK   39  A    between atoms: _97  and  _100
REMARK   40  A    between atoms: _100  and  _101
REMARK   41  A    between atoms: _107  and  _109
REMARK   42  A    between atoms: _109  and  _110
REMARK   43  A    between atoms: _109  and  _112
REMARK   44  A    between atoms: _112  and  _113
REMARK   45  A    between atoms: _113  and  _114
REMARK   46  A    between atoms: _119  and  _121
REMARK   47  A    between atoms: _121  and  _122
REMARK   48  A    between atoms: _124  and  _126
REMARK   49  A    between atoms: _126  and  _127
REMARK   50  A    between atoms: _126  and  _129
REMARK   51  A    between atoms: _131  and  _133
REMARK   52  A    between atoms: _133  and  _134
REMARK   53  A    between atoms: _133  and  _136
REMARK   54  A    between atoms: _136  and  _137
REMARK   55  A    between atoms: _137  and  _138
REMARK   56  A    between atoms: _143  and  _145
REMARK   57  A    between atoms: _145  and  _146
REMARK   58  A    between atoms: _145  and  _148
REMARK   59  A    between atoms: _148  and  _149
REMARK   60  A    between atoms: _155  and  _157
REMARK   61  A    between atoms: _157  and  _158
REMARK   62  A    between atoms: _157  and  _160
REMARK   63  A    between atoms: _160  and  _161
REMARK   64  A    between atoms: _161  and  _162
REMARK   65  A    between atoms: _162  and  _163
REMARK   66  A    between atoms: _172  and  _174
REMARK   67  A    between atoms: _174  and  _175
REMARK   68  A    between atoms: _174  and  _177
REMARK   69  A    between atoms: _177  and  _178
REMARK   70  A    between atoms: _180  and  _182
REMARK   71  A    between atoms: _182  and  _183
REMARK   72  A    between atoms: _182  and  _185
REMARK   73  A    between atoms: _188  and  _190
REMARK   74  A    between atoms: _190  and  _191
REMARK   75  A    between atoms: _190  and  _193
REMARK   76  A    between atoms: _193  and  _194
REMARK   77  A    between atoms: _194  and  _195
REMARK   78  A    between atoms: _198  and  _200
REMARK   79  A    between atoms: _200  and  _201
REMARK   80  A    between atoms: _204  and  _206
REMARK   81  A    between atoms: _206  and  _207
REMARK   82  A    between atoms: _206  and  _209
REMARK   83  A    between atoms: _212  and  _214
REMARK   84  A    between atoms: _214  and  _215
REMARK   85  A    between atoms: _214  and  _217
REMARK   86  A    between atoms: _217  and  _218
REMARK   87  A    between atoms: _218  and  _219
REMARK   88  A    between atoms: _224  and  _226
REMARK   89  A    between atoms: _226  and  _227
REMARK   90  A    between atoms: _226  and  _229
REMARK   91  A    between atoms: _229  and  _230
REMARK   92  A    between atoms: _230  and  _231
REMARK   93  A    between atoms: _234  and  _236
REMARK   94  A    between atoms: _236  and  _237
REMARK   95  A    between atoms: _236  and  _239
REMARK   96  A    between atoms: _239  and  _240
REMARK   97  A    between atoms: _243  and  _245
REMARK   98  A    between atoms: _245  and  _246
REMARK   99  A    between atoms: _245  and  _248
REMARK  100  A    between atoms: _248  and  _249
REMARK  101  A    between atoms: _252  and  _254
REMARK  102  A    between atoms: _254  and  _255
REMARK  103  A    between atoms: _254  and  _257
REMARK  104  A    between atoms: _257  and  _258
REMARK  105  A    between atoms: _263  and  _264
REMARK  106  A    between atoms: _266  and  _268
REMARK  107  A    between atoms: _268  and  _269
REMARK  108  A    between atoms: _268  and  _271
REMARK  109  A    between atoms: _274  and  _276
REMARK  110  A    between atoms: _276  and  _277
REMARK  111  A    between atoms: _276  and  _279
REMARK  112  A    between atoms: _279  and  _280
REMARK  113  A    between atoms: _285  and  _287
REMARK  114  A    between atoms: _287  and  _288
REMARK  115  A    between atoms: _287  and  _290
REMARK  116  A    between atoms: _290  and  _291
REMARK  117  A    between atoms: _294  and  _296
REMARK  118  A    between atoms: _296  and  _297
REMARK  119  A    between atoms: _296  and  _299
REMARK  120  A    between atoms: _299  and  _300
REMARK  121  A    between atoms: _303  and  _305
REMARK  122  A    between atoms: _305  and  _306
REMARK  123  A    between atoms: _305  and  _308
REMARK  124  A    between atoms: _308  and  _309
REMARK  125  A    between atoms: _314  and  _315
REMARK  126  A    between atoms: _317  and  _319
REMARK  127  A    between atoms: _319  and  _320
REMARK  128  A    between atoms: _319  and  _322
REMARK  129  A    between atoms: _322  and  _323
REMARK  130  A    between atoms: _326  and  _328
REMARK  131  A    between atoms: _328  and  _329
REMARK  132  A    between atoms: _328  and  _331
REMARK  133  A    between atoms: _331  and  _332
REMARK  134  A    between atoms: _332  and  _333
REMARK  135  A    between atoms: _335  and  _337
REMARK  136  A    between atoms: _337  and  _338
REMARK  137  A    between atoms: _337  and  _340
REMARK  138  A    between atoms: _340  and  _341
REMARK  139  A    between atoms: _344  and  _346
REMARK  140  A    between atoms: _346  and  _347
REMARK  141  A    between atoms: _350  and  _352
REMARK  142  A    between atoms: _352  and  _353
REMARK  143  A    between atoms: _352  and  _355
REMARK  144  A    between atoms: _355  and  _356
REMARK  145  A    between atoms: _358  and  _360
REMARK  146  A    between atoms: _360  and  _361
REMARK  147  A    between atoms: _360  and  _363
REMARK  148  A    between atoms: _363  and  _364
REMARK  149  A    between atoms: _367  and  _369
REMARK  150  A    between atoms: _369  and  _370
REMARK  151  A    between atoms: _369  and  _372
REMARK  152  A    between atoms: _372  and  _373
REMARK  153  A    between atoms: _373  and  _374
REMARK  154  A    between atoms: _376  and  _378
REMARK  155  A    between atoms: _378  and  _379
REMARK  156  A    between atoms: _381  and  _383
REMARK  157  A    between atoms: _383  and  _384
REMARK  158  A    between atoms: _383  and  _386
REMARK  159  A    between atoms: _389  and  _391
REMARK  160  A    between atoms: _391  and  _392
REMARK  161  A    between atoms: _391  and  _394
REMARK  162  A    between atoms: _394  and  _395
REMARK  163  A    between atoms: _398  and  _400
REMARK  164  A    between atoms: _400  and  _401
REMARK  165  A    between atoms: _400  and  _403
REMARK  166  A    between atoms: _403  and  _404
REMARK  167  A    between atoms: _407  and  _409
REMARK  168  A    between atoms: _409  and  _410
REMARK  169  A    between atoms: _409  and  _412
REMARK  170  A    between atoms: _412  and  _413
REMARK  171  A    between atoms: _415  and  _417
REMARK  172  A    between atoms: _417  and  _418
REMARK  173  A    between atoms: _417  and  _420
REMARK  174  A    between atoms: _420  and  _421
REMARK  175  A    between atoms: _421  and  _422
REMARK  176  A    between atoms: _425  and  _427
REMARK  177  A    between atoms: _427  and  _428
REMARK  178  A    between atoms: _430  and  _432
REMARK  179  A    between atoms: _432  and  _433
REMARK  180  A    between atoms: _432  and  _435
REMARK  181  A    between atoms: _435  and  _436
REMARK  182  A    between atoms: _436  and  _437
REMARK  183  A    between atoms: _442  and  _444
REMARK  184  A    between atoms: _444  and  _445
REMARK  185  A    between atoms: _447  and  _449
REMARK  186  A    between atoms: _449  and  _450
REMARK  187  A    between atoms: _449  and  _452
REMARK  188  A    between atoms: _452  and  _453
REMARK  189  A    between atoms: _459  and  _461
REMARK  190  A    between atoms: _461  and  _462
REMARK  191  A    between atoms: _461  and  _464
REMARK  192  A    between atoms: _464  and  _465
REMARK  193  A    between atoms: _465  and  _466
REMARK  194  A    between atoms: _468  and  _470
REMARK  195  A    between atoms: _470  and  _471
REMARK  196  A    between atoms: _470  and  _473
REMARK  197  A    between atoms: _473  and  _474
REMARK  198  A    between atoms: _477  and  _479
REMARK  199  A    between atoms: _479  and  _480
REMARK  200  A    between atoms: _479  and  _482
REMARK  201  A    between atoms: _482  and  _483
REMARK  202  A    between atoms: _483  and  _484
REMARK  203  A    between atoms: _484  and  _485
REMARK  204  A    between atoms: _494  and  _496
REMARK  205  A    between atoms: _496  and  _497
REMARK  206  A    between atoms: _496  and  _499
REMARK  207  A    between atoms: _499  and  _500
REMARK  208  A    between atoms: _506  and  _508
REMARK  209  A    between atoms: _508  and  _509
REMARK  210  A    between atoms: _508  and  _511
REMARK  211  A    between atoms: _511  and  _512
REMARK  212  A    between atoms: _515  and  _517
REMARK  213  A    between atoms: _517  and  _518
REMARK  214  A    between atoms: _517  and  _520
REMARK  215  A    between atoms: _520  and  _521
REMARK  216  A    between atoms: _524  and  _526
REMARK  217  A    between atoms: _526  and  _527
REMARK  218  A    between atoms: _526  and  _529
REMARK  219  A    between atoms: _529  and  _530
REMARK  220  A    between atoms: _536  and  _538
REMARK  221  A    between atoms: _538  and  _539
REMARK  222  A    between atoms: _538  and  _541
REMARK  223  A    between atoms: _541  and  _542
REMARK  224  A    between atoms: _542  and  _543
REMARK  225  A    between atoms: _545  and  _547
REMARK  226  A    between atoms: _547  and  _548
REMARK  227  A    between atoms: _547  and  _550
REMARK  228  A    between atoms: _550  and  _551
REMARK  229  A    between atoms: _551  and  _552
REMARK  230  A    between atoms: _556  and  _557
REMARK  231  A    between atoms: _562  and  _564
REMARK  232  A    between atoms: _564  and  _565
REMARK  233  A    between atoms: _564  and  _567
REMARK  234  A    between atoms: _567  and  _568
REMARK  235  A    between atoms: _568  and  _569
REMARK  236  A    between atoms: _569  and  _570
REMARK  237  A    between atoms: _570  and  _571
REMARK  238  A    between atoms: _575  and  _577
REMARK  239  A    between atoms: _577  and  _578
REMARK  240  A    between atoms: _577  and  _580
REMARK  241  A    between atoms: _580  and  _581
REMARK  242  A    between atoms: _587  and  _589
REMARK  243  A    between atoms: _589  and  _590
REMARK  244  A    between atoms: _589  and  _592
REMARK  245  A    between atoms: _592  and  _593
REMARK  246  A    between atoms: _596  and  _598
REMARK  247  A    between atoms: _598  and  _599
REMARK  248  A    between atoms: _598  and  _601
REMARK  249  A    between atoms: _601  and  _602
REMARK  250  A    between atoms: _605  and  _607
REMARK  251  A    between atoms: _607  and  _608
REMARK  252  A    between atoms: _607  and  _610
REMARK  253  A    between atoms: _613  and  _615
REMARK  254  A    between atoms: _615  and  _616
REMARK  255  A    between atoms: _615  and  _618
REMARK  256  A    between atoms: _618  and  _619
REMARK  257  A    between atoms: _624  and  _626
REMARK  258  A    between atoms: _626  and  _627
REMARK  259  A    between atoms: _626  and  _629
REMARK  260  A    between atoms: _629  and  _630
REMARK  261  A    between atoms: _633  and  _635
REMARK  262  A    between atoms: _635  and  _636
REMARK  263  A    between atoms: _635  and  _638
REMARK  264  A    between atoms: _638  and  _639
REMARK  265  A    between atoms: _642  and  _644
REMARK  266  A    between atoms: _644  and  _645
REMARK  267  A    between atoms: _644  and  _647
REMARK  268  A    between atoms: _647  and  _648
REMARK  269  A    between atoms: _651  and  _653
REMARK  270  A    between atoms: _653  and  _654
REMARK  271  A    between atoms: _653  and  _656
REMARK  272  A    between atoms: _656  and  _657
REMARK  273  A    between atoms: _662  and  _663
REMARK                            x       y       z     vdW  Elec       q    Type
REMARK                         _______ _______ _______ _____ _____    ______ ____
ROOT
ATOM      1  O   HOH     1      11.000   5.022   7.327  0.00  0.00    +0.000 OA
ENDROOT
TORSDOF 0
REMARK  Name = ../refined-set-2016/2p4y/2p4y_pocket.pdb
REMARK  273 active torsions:
REMARK  status: ('A' for Active; 'I' for Inactive)
REMARK    1  A    between atoms: _1  and  _3
REMARK    2  A    between atoms: _3  and  _4
REMARK    3  A    between atoms: _3  and  _6
REMARK    4  A    between atoms: _6  and  _7
REMARK    5  A    between atoms: _12  and  _13
REMARK    6  A    between atoms: _15  and  _17
REMARK    7  A    between atoms: _17  and  _18
REMARK    8  A    between atoms: _17  and  _20
REMARK    9  A    between atoms: _20  and  _21
REMARK   10  A    between atoms: _23  and  _25
REMARK   11  A    between atoms: _25  and  _26
REMARK   12  A    between atoms: _25  and  _28
REMARK   13  A    between atoms: _28  and  _29
REMARK   14  A    between atoms: _36  and  _37
REMARK   15  A    between atoms: _42  and  _44
REMARK   16  A    between atoms: _44  and  _45
REMARK   17  A    between atoms: _44  and  _47
REMARK   18  A    between atoms: _47  and  _48
REMARK   19  A    between atoms: _51  and  _53
REMARK   20  A    between atoms: _53  and  _54
REMARK   21  A    between atoms: _53  and  _56
REMARK   22  A    between atoms: _56  and  _57
REMARK   23  A    between atoms: _60  and  _62
REMARK   24  A    between atoms: _62  and  _63
REMARK   25  A    between atoms: _62  and  _65
REMARK   26  A    between atoms: _65  and  _66
REMARK   27  A    between atoms: _69  and  _71
REMARK   28  A    between atoms: _71  and  _72
REMARK   29  A    between atoms: _71  and  _74
REMARK   30  A    between atoms: _74  and  _75
REMARK   31  A    between atoms: _75  and  _76
REMARK   32  A    between atoms: _76  and  _77
REMARK   33  A    between atoms: _86  and  _88
REMARK   34  A    between atoms: _88  and  _89
REMARK   35  A    between atoms: _88  and  _91
REMARK   36  A    between atoms: _91  and  _92
REMARK   37  A    between atoms: _95  and  _97
REMARK   38  A    between atoms: _97  and  _98
REMARK   39  A    between atoms: _97  and  _100
REMARK   40  A    between atoms: _100  and  _101
REMARK   41  A    between atoms: _107  and  _109
REMARK   42  A    between atoms: _109  and  _110
REMARK   43  A    between atoms: _109  and  _112
REMARK   44  A    between atoms: _112  and  _113
REMARK   45  A    between atoms: _113  and  _114
REMARK   46  A    between atoms: _119  and  _121
REMARK   47  A    between atoms: _121  and  _122
REMARK   48  A    between atoms: _124  and  _126
REMARK   49  A    between atoms: _126  and  _127
REMARK   50  A    between atoms: _126  and  _129
REMARK   51  A    between atoms: _131  and  _133
REMARK   52  A    between atoms: _133  and  _134
REMARK   53  A    between atoms: _133  and  _136
REMARK   54  A    between atoms: _136  and  _137
REMARK   55  A    between atoms: _137  and  _138
REMARK   56  A    between atoms: _143  and  _145
REMARK   57  A    between atoms: _145  and  _146
REMARK   58  A    between atoms: _145  and  _148
REMARK   59  A    between atoms: _148  and  _149
REMARK   60  A    between atoms: _155  and  _157
REMARK   61  A    between atoms: _157  and  _158
REMARK   62  A    between atoms: _157  and  _160
REMARK   63  A    between atoms: _160  and  _161
REMARK   64  A    between atoms: _161  and  _162
REMARK   65  A    between atoms: _162  and  _163
REMARK   66  A    between atoms: _172  and  _174
REMARK   67  A    between atoms: _174  and  _175
REMARK   68  A    between atoms: _174  and  _177
REMARK   69  A    between atoms: _177  and  _178
REMARK   70  A    between atoms: _180  and  _182
REMARK   71  A    between atoms: _182  and  _183
REMARK   72  A    between atoms: _182  and  _185
REMARK   73  A    between atoms: _188  and  _190
REMARK   74  A    between atoms: _190  and  _191
REMARK   75  A    between atoms: _190  and  _193
REMARK   76  A    between atoms: _193  and  _194
REMARK   77  A    between atoms: _194  and  _195
REMARK   78  A    between atoms: _198  and  _200
REMARK   79  A    between atoms: _200  and  _201
REMARK   80  A    between atoms: _204  and  _206
REMARK   81  A    between atoms: _206  and  _207
REMARK   82  A    between atoms: _206  and  _209
REMARK   83  A    between atoms: _212  and  _214
REMARK   84  A    between atoms: _214  and  _215
REMARK   85  A    between atoms: _214  and  _217
REMARK   86  A    between atoms: _217  and  _218
REMARK   87  A    between atoms: _218  and  _219
REMARK   88  A    between atoms: _224  and  _226
REMARK   89  A    between atoms: _226  and  _227
REMARK   90  A    between atoms: _226  and  _229
REMARK   91  A    between atoms: _229  and  _230
REMARK   92  A    between atoms: _230  and  _231
REMARK   93  A    between atoms: _234  and  _236
REMARK   94  A    between atoms: _236  and  _237
REMARK   95  A    between atoms: _236  and  _239
REMARK   96  A    between atoms: _239  and  _240
REMARK   97  A    between atoms: _243  and  _245
REMARK   98  A    between atoms: _245  and  _246
REMARK   99  A    between atoms: _245  and  _248
REMARK  100  A    between atoms: _248  and  _249
REMARK  101  A    between atoms: _252  and  _254
REMARK  102  A    between atoms: _254  and  _255
REMARK  103  A    between atoms: _254  and  _257
REMARK  104  A    between atoms: _257  and  _258
REMARK  105  A    between atoms: _263  and  _264
REMARK  106  A    between atoms: _266  and  _268
REMARK  107  A    between atoms: _268  and  _269
REMARK  108  A    between atoms: _268  and  _271
REMARK  109  A    between atoms: _274  and  _276
REMARK  110  A    between atoms: _276  and  _277
REMARK  111  A    between atoms: _276  and  _279
REMARK  112  A    between atoms: _279  and  _280
REMARK  113  A    between atoms: _285  and  _287
REMARK  114  A    between atoms: _287  and  _288
REMARK  115  A    between atoms: _287  and  _290
REMARK  116  A    between atoms: _290  and  _291
REMARK  117  A    between atoms: _294  and  _296
REMARK  118  A    between atoms: _296  and  _297
REMARK  119  A    between atoms: _296  and  _299
REMARK  120  A    between atoms: _299  and  _300
REMARK  121  A    between atoms: _303  and  _305
REMARK  122  A    between atoms: _305  and  _306
REMARK  123  A    between atoms: _305  and  _308
REMARK  124  A    between atoms: _308  and  _309
REMARK  125  A    between atoms: _314  and  _315
REMARK  126  A    between atoms: _317  and  _319
REMARK  127  A    between atoms: _319  and  _320
REMARK  128  A    between atoms: _319  and  _322
REMARK  129  A    between atoms: _322  and  _323
REMARK  130  A    between atoms: _326  and  _328
REMARK  131  A    between atoms: _328  and  _329
REMARK  132  A    between atoms: _328  and  _331
REMARK  133  A    between atoms: _331  and  _332
REMARK  134  A    between atoms: _332  and  _333
REMARK  135  A    between atoms: _335  and  _337
REMARK  136  A    between atoms: _337  and  _338
REMARK  137  A    between atoms: _337  and  _340
REMARK  138  A    between atoms: _340  and  _341
REMARK  139  A    between atoms: _344  and  _346
REMARK  140  A    between atoms: _346  and  _347
REMARK  141  A    between atoms: _350  and  _352
REMARK  142  A    between atoms: _352  and  _353
REMARK  143  A    between atoms: _352  and  _355
REMARK  144  A    between atoms: _355  and  _356
REMARK  145  A    between atoms: _358  and  _360
REMARK  146  A    between atoms: _360  and  _361
REMARK  147  A    between atoms: _360  and  _363
REMARK  148  A    between atoms: _363  and  _364
REMARK  149  A    between atoms: _367  and  _369
REMARK  150  A    between atoms: _369  and  _370
REMARK  151  A    between atoms: _369  and  _372
REMARK  152  A    between atoms: _372  and  _373
REMARK  153  A    between atoms: _373  and  _374
REMARK  154  A    between atoms: _376  and  _378
REMARK  155  A    between atoms: _378  and  _379
REMARK  156  A    between atoms: _381  and  _383
REMARK  157  A    between atoms: _383  and  _384
REMARK  158  A    between atoms: _383  and  _386
REMARK  159  A    between atoms: _389  and  _391
REMARK  160  A    between atoms: _391  and  _392
REMARK  161  A    between atoms: _391  and  _394
REMARK  162  A    between atoms: _394  and  _395
REMARK  163  A    between atoms: _398  and  _400
REMARK  164  A    between atoms: _400  and  _401
REMARK  165  A    between atoms: _400  and  _403
REMARK  166  A    between atoms: _403  and  _404
REMARK  167  A    between atoms: _407  and  _409
REMARK  168  A    between atoms: _409  and  _410
REMARK  169  A    between atoms: _409  and  _412
REMARK  170  A    between atoms: _412  and  _413
REMARK  171  A    between atoms: _415  and  _417
REMARK  172  A    between atoms: _417  and  _418
REMARK  173  A    between atoms: _417  and  _420
REMARK  174  A    between atoms: _420  and  _421
REMARK  175  A    between atoms: _421  and  _422
REMARK  176  A    between atoms: _425  and  _427
REMARK  177  A    between atoms: _427  and  _428
REMARK  178  A    between atoms: _430  and  _432
REMARK  179  A    between atoms: _432  and  _433
REMARK  180  A    between atoms: _432  and  _435
REMARK  181  A    between atoms: _435  and  _436
REMARK  182  A    between atoms: _436  and  _437
REMARK  183  A    between atoms: _442  and  _444
REMARK  184  A    between atoms: _444  and  _445
REMARK  185  A    between atoms: _447  and  _449
REMARK  186  A    between atoms: _449  and  _450
REMARK  187  A    between atoms: _449  and  _452
REMARK  188  A    between atoms: _452  and  _453
REMARK  189  A    between atoms: _459  and  _461
REMARK  190  A    between atoms: _461  and  _462
REMARK  191  A    between atoms: _461  and  _464
REMARK  192  A    between atoms: _464  and  _465
REMARK  193  A    between atoms: _465  and  _466
REMARK  194  A    between atoms: _468  and  _470
REMARK  195  A    between atoms: _470  and  _471
REMARK  196  A    between atoms: _470  and  _473
REMARK  197  A    between atoms: _473  and  _474
REMARK  198  A    between atoms: _477  and  _479
REMARK  199  A    between atoms: _479  and  _480
REMARK  200  A    between atoms: _479  and  _482
REMARK  201  A    between atoms: _482  and  _483
REMARK  202  A    between atoms: _483  and  _484
REMARK  203  A    between atoms: _484  and  _485
REMARK  204  A    between atoms: _494  and  _496
REMARK  205  A    between atoms: _496  and  _497
REMARK  206  A    between atoms: _496  and  _499
REMARK  207  A    between atoms: _499  and  _500
REMARK  208  A    between atoms: _506  and  _508
REMARK  209  A    between atoms: _508  and  _509
REMARK  210  A    between atoms: _508  and  _511
REMARK  211  A    between atoms: _511  and  _512
REMARK  212  A    between atoms: _515  and  _517
REMARK  213  A    between atoms: _517  and  _518
REMARK  214  A    between atoms: _517  and  _520
REMARK  215  A    between atoms: _520  and  _521
REMARK  216  A    between atoms: _524  and  _526
REMARK  217  A    between atoms: _526  and  _527
REMARK  218  A    between atoms: _526  and  _529
REMARK  219  A    between atoms: _529  and  _530
REMARK  220  A    between atoms: _536  and  _538
REMARK  221  A    between atoms: _538  and  _539
REMARK  222  A    between atoms: _538  and  _541
REMARK  223  A    between atoms: _541  and  _542
REMARK  224  A    between atoms: _542  and  _543
REMARK  225  A    between atoms: _545  and  _547
REMARK  226  A    between atoms: _547  and  _548
REMARK  227  A    between atoms: _547  and  _550
REMARK  228  A    between atoms: _550  and  _551
REMARK  229  A    between atoms: _551  and  _552
REMARK  230  A    between atoms: _556  and  _557
REMARK  231  A    between atoms: _562  and  _564
REMARK  232  A    between atoms: _564  and  _565
REMARK  233  A    between atoms: _564  and  _567
REMARK  234  A    between atoms: _567  and  _568
REMARK  235  A    between atoms: _568  and  _569
REMARK  236  A    between atoms: _569  and  _570
REMARK  237  A    between atoms: _570  and  _571
REMARK  238  A    between atoms: _575  and  _577
REMARK  239  A    between atoms: _577  and  _578
REMARK  240  A    between atoms: _577  and  _580
REMARK  241  A    between atoms: _580  and  _581
REMARK  242  A    between atoms: _587  and  _589
REMARK  243  A    between atoms: _589  and  _590
REMARK  244  A    between atoms: _589  and  _592
REMARK  245  A    between atoms: _592  and  _593
REMARK  246  A    between atoms: _596  and  _598
REMARK  247  A    between atoms: _598  and  _599
REMARK  248  A    between atoms: _598  and  _601
REMARK  249  A    between atoms: _601  and  _602
REMARK  250  A    between atoms: _605  and  _607
REMARK  251  A    between atoms: _607  and  _608
REMARK  252  A    between atoms: _607  and  _610
REMARK  253  A    between atoms: _613  and  _615
REMARK  254  A    between atoms: _615  and  _616
REMARK  255  A    between atoms: _615  and  _618
REMARK  256  A    between atoms: _618  and  _619
REMARK  257  A    between atoms: _624  and  _626
REMARK  258  A    between atoms: _626  and  _627
REMARK  259  A    between atoms: _626  and  _629
REMARK  260  A    between atoms: _629  and  _630
REMARK  261  A    between atoms: _633  and  _635
REMARK  262  A    between atoms: _635  and  _636
REMARK  263  A    between atoms: _635  and  _638
REMARK  264  A    between atoms: _638  and  _639
REMARK  265  A    between atoms: _642  and  _644
REMARK  266  A    between atoms: _644  and  _645
REMARK  267  A    between atoms: _644  and  _647
REMARK  268  A    between atoms: _647  and  _648
REMARK  269  A    between atoms: _651  and  _653
REMARK  270  A    between atoms: _653  and  _654
REMARK  271  A    between atoms: _653  and  _656
REMARK  272  A    between atoms: _656  and  _657
REMARK  273  A    between atoms: _662  and  _663
REMARK                            x       y       z     vdW  Elec       q    Type
REMARK                         _______ _______ _______ _____ _____    ______ ____
ROOT
ATOM      1  O   HOH     1      26.681   2.539  10.194  0.00  0.00    +0.000 OA
ENDROOT
TORSDOF 0
