REMARK  Name = ../refined-set-2016/3r17/3r17_pocket.pdb
REMARK  158 active torsions:
REMARK  status: ('A' for Active; 'I' for Inactive)
REMARK    1  A    between atoms: _1  and  _3
REMARK    2  A    between atoms: _3  and  _4
REMARK    3  A    between atoms: _3  and  _6
REMARK    4  A    between atoms: _6  and  _7
REMARK    5  A    between atoms: _17  and  _19
REMARK    6  A    between atoms: _19  and  _20
REMARK    7  A    between atoms: _19  and  _22
REMARK    8  A    between atoms: _22  and  _23
REMARK    9  A    between atoms: _28  and  _29
REMARK   10  A    between atoms: _31  and  _33
REMARK   11  A    between atoms: _33  and  _34
REMARK   12  A    between atoms: _33  and  _36
REMARK   13  A    between atoms: _36  and  _37
REMARK   14  A    between atoms: _43  and  _45
REMARK   15  A    between atoms: _45  and  _46
REMARK   16  A    between atoms: _45  and  _48
REMARK   17  A    between atoms: _48  and  _49
REMARK   18  A    between atoms: _52  and  _53
REMARK   19  A    between atoms: _58  and  _60
REMARK   20  A    between atoms: _60  and  _61
REMARK   21  A    between atoms: _60  and  _63
REMARK   22  A    between atoms: _63  and  _64
REMARK   23  A    between atoms: _69  and  _71
REMARK   24  A    between atoms: _71  and  _72
REMARK   25  A    between atoms: _71  and  _74
REMARK   26  A    between atoms: _74  and  _75
REMARK   27  A    between atoms: _80  and  _82
REMARK   28  A    between atoms: _82  and  _83
REMARK   29  A    between atoms: _86  and  _88
REMARK   30  A    between atoms: _88  and  _89
REMARK   31  A    between atoms: _88  and  _91
REMARK   32  A    between atoms: _91  and  _92
REMARK   33  A    between atoms: _97  and  _99
REMARK   34  A    between atoms: _99  and  _100
REMARK   35  A    between atoms: _99  and  _102
REMARK   36  A    between atoms: _102  and  _103
REMARK   37  A    between atoms: _106  and  _108
REMARK   38  A    between atoms: _108  and  _109
REMARK   39  A    between atoms: _108  and  _111
REMARK   40  A    between atoms: _111  and  _112
REMARK   41  A    between atoms: _112  and  _113
REMARK   42  A    between atoms: _118  and  _120
REMARK   43  A    between atoms: _120  and  _121
REMARK   44  A    between atoms: _120  and  _123
REMARK   45  A    between atoms: _123  and  _124
REMARK   46  A    between atoms: _130  and  _132
REMARK   47  A    between atoms: _143  and  _146
REMARK   48  A    between atoms: _146  and  _147
REMARK   49  A    between atoms: _155  and  _156
REMARK   50  A    between atoms: _164  and  _166
REMARK   51  A    between atoms: _166  and  _167
REMARK   52  A    between atoms: _166  and  _169
REMARK   53  A    between atoms: _169  and  _170
REMARK   54  A    between atoms: _170  and  _171
REMARK   55  A    between atoms: _174  and  _176
REMARK   56  A    between atoms: _176  and  _177
REMARK   57  A    between atoms: _176  and  _179
REMARK   58  A    between atoms: _179  and  _180
REMARK   59  A    between atoms: _185  and  _187
REMARK   60  A    between atoms: _187  and  _188
REMARK   61  A    between atoms: _187  and  _190
REMARK   62  A    between atoms: _190  and  _191
REMARK   63  A    between atoms: _191  and  _192
REMARK   64  A    between atoms: _195  and  _197
REMARK   65  A    between atoms: _197  and  _198
REMARK   66  A    between atoms: _197  and  _200
REMARK   67  A    between atoms: _200  and  _201
REMARK   68  A    between atoms: _204  and  _206
REMARK   69  A    between atoms: _206  and  _207
REMARK   70  A    between atoms: _206  and  _209
REMARK   71  A    between atoms: _209  and  _210
REMARK   72  A    between atoms: _211  and  ZN_443
REMARK   73  A    between atoms: _215  and  _217
REMARK   74  A    between atoms: _217  and  _218
REMARK   75  A    between atoms: _217  and  _220
REMARK   76  A    between atoms: _220  and  _221
REMARK   77  A    between atoms: _224  and  _226
REMARK   78  A    between atoms: _226  and  _227
REMARK   79  A    between atoms: _226  and  _229
REMARK   80  A    between atoms: _232  and  _234
REMARK   81  A    between atoms: _234  and  _235
REMARK   82  A    between atoms: _234  and  _237
REMARK   83  A    between atoms: _237  and  _238
REMARK   84  A    between atoms: _243  and  _245
REMARK   85  A    between atoms: _245  and  _246
REMARK   86  A    between atoms: _245  and  _248
REMARK   87  A    between atoms: _248  and  _249
REMARK   88  A    between atoms: _255  and  _257
REMARK   89  A    between atoms: _257  and  _258
REMARK   90  A    between atoms: _260  and  _262
REMARK   91  A    between atoms: _262  and  _263
REMARK   92  A    between atoms: _262  and  _265
REMARK   93  A    between atoms: _268  and  _270
REMARK   94  A    between atoms: _270  and  _271
REMARK   95  A    between atoms: _270  and  _273
REMARK   96  A    between atoms: _273  and  _274
REMARK   97  A    between atoms: _274  and  _275
REMARK   98  A    between atoms: _280  and  _282
REMARK   99  A    between atoms: _282  and  _283
REMARK  100  A    between atoms: _282  and  _285
REMARK  101  A    between atoms: _285  and  _286
REMARK  102  A    between atoms: _289  and  _291
REMARK  103  A    between atoms: _291  and  _292
REMARK  104  A    between atoms: _295  and  _297
REMARK  105  A    between atoms: _297  and  _298
REMARK  106  A    between atoms: _297  and  _300
REMARK  107  A    between atoms: _303  and  _305
REMARK  108  A    between atoms: _305  and  _306
REMARK  109  A    between atoms: _305  and  _308
REMARK  110  A    between atoms: _308  and  _309
REMARK  111  A    between atoms: _312  and  _314
REMARK  112  A    between atoms: _314  and  _315
REMARK  113  A    between atoms: _317  and  _319
REMARK  114  A    between atoms: _319  and  _320
REMARK  115  A    between atoms: _319  and  _322
REMARK  116  A    between atoms: _322  and  _323
REMARK  117  A    between atoms: _325  and  _327
REMARK  118  A    between atoms: _327  and  _328
REMARK  119  A    between atoms: _327  and  _330
REMARK  120  A    between atoms: _330  and  _331
REMARK  121  A    between atoms: _334  and  _336
REMARK  122  A    between atoms: _336  and  _337
REMARK  123  A    between atoms: _336  and  _339
REMARK  124  A    between atoms: _339  and  _340
REMARK  125  A    between atoms: _343  and  _345
REMARK  126  A    between atoms: _345  and  _346
REMARK  127  A    between atoms: _345  and  _348
REMARK  128  A    between atoms: _348  and  _349
REMARK  129  A    between atoms: _353  and  _354
REMARK  130  A    between atoms: _360  and  _361
REMARK  131  A    between atoms: _366  and  _368
REMARK  132  A    between atoms: _368  and  _369
REMARK  133  A    between atoms: _368  and  _371
REMARK  134  A    between atoms: _371  and  _372
REMARK  135  A    between atoms: _375  and  _377
REMARK  136  A    between atoms: _377  and  _378
REMARK  137  A    between atoms: _377  and  _380
REMARK  138  A    between atoms: _380  and  _381
REMARK  139  A    between atoms: _384  and  _386
REMARK  140  A    between atoms: _386  and  _387
REMARK  141  A    between atoms: _386  and  _389
REMARK  142  A    between atoms: _391  and  _393
REMARK  143  A    between atoms: _393  and  _394
REMARK  144  A    between atoms: _393  and  _396
REMARK  145  A    between atoms: _399  and  _401
REMARK  146  A    between atoms: _401  and  _402
REMARK  147  A    between atoms: _401  and  _404
REMARK  148  A    between atoms: _404  and  _405
REMARK  149  A    between atoms: _415  and  _417
REMARK  150  A    between atoms: _417  and  _418
REMARK  151  A    between atoms: _417  and  _420
REMARK  152  A    between atoms: _420  and  _421
REMARK  153  A    between atoms: _426  and  _428
REMARK  154  A    between atoms: _428  and  _429
REMARK  155  A    between atoms: _428  and  _431
REMARK  156  A    between atoms: _431  and  _432
REMARK  157  A    between atoms: _432  and  _433
REMARK  158  A    between atoms: _433  and  _434
REMARK                            x       y       z     vdW  Elec       q    Type
REMARK                         _______ _______ _______ _____ _____    ______ ____
ROOT
ATOM      1  CG  TRP A   1      27.123  -0.086  12.173  0.00  0.00    -0.002 A 
ATOM      2  CD2 TRP A   1      25.770  -0.547  12.132  0.00  0.00    +0.013 A 
ATOM      3  CE3 TRP A   1      25.162  -1.779  12.383  0.00  0.00    +0.001 A 
ATOM      4  CZ3 TRP A   1      23.788  -1.881  12.240  0.00  0.00    +0.000 A 
ATOM      5  CH2 TRP A   1      23.015  -0.774  11.858  0.00  0.00    +0.001 A 
ATOM      6  CZ2 TRP A   1      23.583   0.441  11.603  0.00  0.00    +0.017 A 
ATOM      7  CE2 TRP A   1      24.966   0.545  11.742  0.00  0.00    +0.056 A 
ATOM      8  NE1 TRP A   1      25.793   1.623  11.566  0.00  0.00    -0.352 N 
ATOM      9  HE1 TRP A   1      25.491   2.577  11.283  0.00  0.00    +0.166 HD
ATOM     10  CD1 TRP A   1      27.088   1.238  11.824  0.00  0.00    +0.068 A 
ENDROOT
BRANCH   1  11
ATOM     11  CB  TRP A   1      28.328  -0.898  12.534  0.00  0.00    +0.053 C 
BRANCH  11  12
ATOM     12  CA  TRP A   1      28.991  -1.580  11.328  0.00  0.00    +0.137 C 
BRANCH  12  13
ATOM     13  N   TRP A   1      29.654  -0.599  10.483  0.00  0.00    -0.239 NA
ATOM     14  H   TRP A   1      29.435   0.411  10.603  0.00  0.00    +0.142 HD
ENDBRANCH  12  13
BRANCH  12  15
ATOM     15  C   TRP A   1      27.963  -2.389  10.549  0.00  0.00    +0.224 C 
ATOM     16  O   TRP A   1      27.411  -1.927   9.547  0.00  0.00    -0.287 OA
ENDBRANCH  12  15
ENDBRANCH  11  12
ENDBRANCH   1  11
TORSDOF 4
REMARK  Name = ../refined-set-2016/3r17/3r17_pocket.pdb
REMARK  158 active torsions:
REMARK  status: ('A' for Active; 'I' for Inactive)
REMARK    1  A    between atoms: _1  and  _3
REMARK    2  A    between atoms: _3  and  _4
REMARK    3  A    between atoms: _3  and  _6
REMARK    4  A    between atoms: _6  and  _7
REMARK    5  A    between atoms: _17  and  _19
REMARK    6  A    between atoms: _19  and  _20
REMARK    7  A    between atoms: _19  and  _22
REMARK    8  A    between atoms: _22  and  _23
REMARK    9  A    between atoms: _28  and  _29
REMARK   10  A    between atoms: _31  and  _33
REMARK   11  A    between atoms: _33  and  _34
REMARK   12  A    between atoms: _33  and  _36
REMARK   13  A    between atoms: _36  and  _37
REMARK   14  A    between atoms: _43  and  _45
REMARK   15  A    between atoms: _45  and  _46
REMARK   16  A    between atoms: _45  and  _48
REMARK   17  A    between atoms: _48  and  _49
REMARK   18  A    between atoms: _52  and  _53
REMARK   19  A    between atoms: _58  and  _60
REMARK   20  A    between atoms: _60  and  _61
REMARK   21  A    between atoms: _60  and  _63
REMARK   22  A    between atoms: _63  and  _64
REMARK   23  A    between atoms: _69  and  _71
REMARK   24  A    between atoms: _71  and  _72
REMARK   25  A    between atoms: _71  and  _74
REMARK   26  A    between atoms: _74  and  _75
REMARK   27  A    between atoms: _80  and  _82
REMARK   28  A    between atoms: _82  and  _83
REMARK   29  A    between atoms: _86  and  _88
REMARK   30  A    between atoms: _88  and  _89
REMARK   31  A    between atoms: _88  and  _91
REMARK   32  A    between atoms: _91  and  _92
REMARK   33  A    between atoms: _97  and  _99
REMARK   34  A    between atoms: _99  and  _100
REMARK   35  A    between atoms: _99  and  _102
REMARK   36  A    between atoms: _102  and  _103
REMARK   37  A    between atoms: _106  and  _108
REMARK   38  A    between atoms: _108  and  _109
REMARK   39  A    between atoms: _108  and  _111
REMARK   40  A    between atoms: _111  and  _112
REMARK   41  A    between atoms: _112  and  _113
REMARK   42  A    between atoms: _118  and  _120
REMARK   43  A    between atoms: _120  and  _121
REMARK   44  A    between atoms: _120  and  _123
REMARK   45  A    between atoms: _123  and  _124
REMARK   46  A    between atoms: _130  and  _132
REMARK   47  A    between atoms: _143  and  _146
REMARK   48  A    between atoms: _146  and  _147
REMARK   49  A    between atoms: _155  and  _156
REMARK   50  A    between atoms: _164  and  _166
REMARK   51  A    between atoms: _166  and  _167
REMARK   52  A    between atoms: _166  and  _169
REMARK   53  A    between atoms: _169  and  _170
REMARK   54  A    between atoms: _170  and  _171
REMARK   55  A    between atoms: _174  and  _176
REMARK   56  A    between atoms: _176  and  _177
REMARK   57  A    between atoms: _176  and  _179
REMARK   58  A    between atoms: _179  and  _180
REMARK   59  A    between atoms: _185  and  _187
REMARK   60  A    between atoms: _187  and  _188
REMARK   61  A    between atoms: _187  and  _190
REMARK   62  A    between atoms: _190  and  _191
REMARK   63  A    between atoms: _191  and  _192
REMARK   64  A    between atoms: _195  and  _197
REMARK   65  A    between atoms: _197  and  _198
REMARK   66  A    between atoms: _197  and  _200
REMARK   67  A    between atoms: _200  and  _201
REMARK   68  A    between atoms: _204  and  _206
REMARK   69  A    between atoms: _206  and  _207
REMARK   70  A    between atoms: _206  and  _209
REMARK   71  A    between atoms: _209  and  _210
REMARK   72  A    between atoms: _211  and  ZN_443
REMARK   73  A    between atoms: _215  and  _217
REMARK   74  A    between atoms: _217  and  _218
REMARK   75  A    between atoms: _217  and  _220
REMARK   76  A    between atoms: _220  and  _221
REMARK   77  A    between atoms: _224  and  _226
REMARK   78  A    between atoms: _226  and  _227
REMARK   79  A    between atoms: _226  and  _229
REMARK   80  A    between atoms: _232  and  _234
REMARK   81  A    between atoms: _234  and  _235
REMARK   82  A    between atoms: _234  and  _237
REMARK   83  A    between atoms: _237  and  _238
REMARK   84  A    between atoms: _243  and  _245
REMARK   85  A    between atoms: _245  and  _246
REMARK   86  A    between atoms: _245  and  _248
REMARK   87  A    between atoms: _248  and  _249
REMARK   88  A    between atoms: _255  and  _257
REMARK   89  A    between atoms: _257  and  _258
REMARK   90  A    between atoms: _260  and  _262
REMARK   91  A    between atoms: _262  and  _263
REMARK   92  A    between atoms: _262  and  _265
REMARK   93  A    between atoms: _268  and  _270
REMARK   94  A    between atoms: _270  and  _271
REMARK   95  A    between atoms: _270  and  _273
REMARK   96  A    between atoms: _273  and  _274
REMARK   97  A    between atoms: _274  and  _275
REMARK   98  A    between atoms: _280  and  _282
REMARK   99  A    between atoms: _282  and  _283
REMARK  100  A    between atoms: _282  and  _285
REMARK  101  A    between atoms: _285  and  _286
REMARK  102  A    between atoms: _289  and  _291
REMARK  103  A    between atoms: _291  and  _292
REMARK  104  A    between atoms: _295  and  _297
REMARK  105  A    between atoms: _297  and  _298
REMARK  106  A    between atoms: _297  and  _300
REMARK  107  A    between atoms: _303  and  _305
REMARK  108  A    between atoms: _305  and  _306
REMARK  109  A    between atoms: _305  and  _308
REMARK  110  A    between atoms: _308  and  _309
REMARK  111  A    between atoms: _312  and  _314
REMARK  112  A    between atoms: _314  and  _315
REMARK  113  A    between atoms: _317  and  _319
REMARK  114  A    between atoms: _319  and  _320
REMARK  115  A    between atoms: _319  and  _322
REMARK  116  A    between atoms: _322  and  _323
REMARK  117  A    between atoms: _325  and  _327
REMARK  118  A    between atoms: _327  and  _328
REMARK  119  A    between atoms: _327  and  _330
REMARK  120  A    between atoms: _330  and  _331
REMARK  121  A    between atoms: _334  and  _336
REMARK  122  A    between atoms: _336  and  _337
REMARK  123  A    between atoms: _336  and  _339
REMARK  124  A    between atoms: _339  and  _340
REMARK  125  A    between atoms: _343  and  _345
REMARK  126  A    between atoms: _345  and  _346
REMARK  127  A    between atoms: _345  and  _348
REMARK  128  A    between atoms: _348  and  _349
REMARK  129  A    between atoms: _353  and  _354
REMARK  130  A    between atoms: _360  and  _361
REMARK  131  A    between atoms: _366  and  _368
REMARK  132  A    between atoms: _368  and  _369
REMARK  133  A    between atoms: _368  and  _371
REMARK  134  A    between atoms: _371  and  _372
REMARK  135  A    between atoms: _375  and  _377
REMARK  136  A    between atoms: _377  and  _378
REMARK  137  A    between atoms: _377  and  _380
REMARK  138  A    between atoms: _380  and  _381
REMARK  139  A    between atoms: _384  and  _386
REMARK  140  A    between atoms: _386  and  _387
REMARK  141  A    between atoms: _386  and  _389
REMARK  142  A    between atoms: _391  and  _393
REMARK  143  A    between atoms: _393  and  _394
REMARK  144  A    between atoms: _393  and  _396
REMARK  145  A    between atoms: _399  and  _401
REMARK  146  A    between atoms: _401  and  _402
REMARK  147  A    between atoms: _401  and  _404
REMARK  148  A    between atoms: _404  and  _405
REMARK  149  A    between atoms: _415  and  _417
REMARK  150  A    between atoms: _417  and  _418
REMARK  151  A    between atoms: _417  and  _420
REMARK  152  A    between atoms: _420  and  _421
REMARK  153  A    between atoms: _426  and  _428
REMARK  154  A    between atoms: _428  and  _429
REMARK  155  A    between atoms: _428  and  _431
REMARK  156  A    between atoms: _431  and  _432
REMARK  157  A    between atoms: _432  and  _433
REMARK  158  A    between atoms: _433  and  _434
REMARK                            x       y       z     vdW  Elec       q    Type
REMARK                         _______ _______ _______ _____ _____    ______ ____
ROOT
ATOM      1  CG  TYR A   1      23.257  -7.187  11.830  0.00  0.00    -0.020 A 
ATOM      2  CD2 TYR A   1      22.827  -7.185  13.149  0.00  0.00    -0.001 A 
ATOM      3  CE2 TYR A   1      21.977  -6.203  13.620  0.00  0.00    +0.036 A 
ATOM      4  CZ  TYR A   1      21.526  -5.224  12.766  0.00  0.00    +0.134 A 
ATOM      5  CE1 TYR A   1      21.933  -5.205  11.441  0.00  0.00    +0.036 A 
ATOM      6  CD1 TYR A   1      22.793  -6.183  10.987  0.00  0.00    -0.001 A 
ENDROOT
BRANCH   4   7
ATOM      7  OH  TYR A   1      20.670  -4.260  13.246  0.00  0.00    -0.506 OA
ATOM      8  HH  TYR A   1      20.438  -3.633  12.516  0.00  0.00    +0.292 HD
ENDBRANCH   4   7
BRANCH   1   9
ATOM      9  CB  TYR A   1      24.196  -8.260  11.326  0.00  0.00    +0.051 C 
BRANCH   9  10
ATOM     10  CA  TYR A   1      25.683  -7.929  11.529  0.00  0.00    +0.137 C 
BRANCH  10  11
ATOM     11  N   TYR A   1      26.051  -6.754  10.743  0.00  0.00    -0.239 NA
ATOM     12  H   TYR A   1      26.100  -6.827   9.707  0.00  0.00    +0.142 HD
ENDBRANCH  10  11
BRANCH  10  13
ATOM     13  C   TYR A   1      26.540  -9.157  11.220  0.00  0.00    +0.224 C 
ATOM     14  O   TYR A   1      26.201 -10.268  11.616  0.00  0.00    -0.287 OA
ENDBRANCH  10  13
ENDBRANCH   9  10
ENDBRANCH   1   9
TORSDOF 5
REMARK  Name = ../refined-set-2016/3r17/3r17_pocket.pdb
REMARK  158 active torsions:
REMARK  status: ('A' for Active; 'I' for Inactive)
REMARK    1  A    between atoms: _1  and  _3
REMARK    2  A    between atoms: _3  and  _4
REMARK    3  A    between atoms: _3  and  _6
REMARK    4  A    between atoms: _6  and  _7
REMARK    5  A    between atoms: _17  and  _19
REMARK    6  A    between atoms: _19  and  _20
REMARK    7  A    between atoms: _19  and  _22
REMARK    8  A    between atoms: _22  and  _23
REMARK    9  A    between atoms: _28  and  _29
REMARK   10  A    between atoms: _31  and  _33
REMARK   11  A    between atoms: _33  and  _34
REMARK   12  A    between atoms: _33  and  _36
REMARK   13  A    between atoms: _36  and  _37
REMARK   14  A    between atoms: _43  and  _45
REMARK   15  A    between atoms: _45  and  _46
REMARK   16  A    between atoms: _45  and  _48
REMARK   17  A    between atoms: _48  and  _49
REMARK   18  A    between atoms: _52  and  _53
REMARK   19  A    between atoms: _58  and  _60
REMARK   20  A    between atoms: _60  and  _61
REMARK   21  A    between atoms: _60  and  _63
REMARK   22  A    between atoms: _63  and  _64
REMARK   23  A    between atoms: _69  and  _71
REMARK   24  A    between atoms: _71  and  _72
REMARK   25  A    between atoms: _71  and  _74
REMARK   26  A    between atoms: _74  and  _75
REMARK   27  A    between atoms: _80  and  _82
REMARK   28  A    between atoms: _82  and  _83
REMARK   29  A    between atoms: _86  and  _88
REMARK   30  A    between atoms: _88  and  _89
REMARK   31  A    between atoms: _88  and  _91
REMARK   32  A    between atoms: _91  and  _92
REMARK   33  A    between atoms: _97  and  _99
REMARK   34  A    between atoms: _99  and  _100
REMARK   35  A    between atoms: _99  and  _102
REMARK   36  A    between atoms: _102  and  _103
REMARK   37  A    between atoms: _106  and  _108
REMARK   38  A    between atoms: _108  and  _109
REMARK   39  A    between atoms: _108  and  _111
REMARK   40  A    between atoms: _111  and  _112
REMARK   41  A    between atoms: _112  and  _113
REMARK   42  A    between atoms: _118  and  _120
REMARK   43  A    between atoms: _120  and  _121
REMARK   44  A    between atoms: _120  and  _123
REMARK   45  A    between atoms: _123  and  _124
REMARK   46  A    between atoms: _130  and  _132
REMARK   47  A    between atoms: _143  and  _146
REMARK   48  A    between atoms: _146  and  _147
REMARK   49  A    between atoms: _155  and  _156
REMARK   50  A    between atoms: _164  and  _166
REMARK   51  A    between atoms: _166  and  _167
REMARK   52  A    between atoms: _166  and  _169
REMARK   53  A    between atoms: _169  and  _170
REMARK   54  A    between atoms: _170  and  _171
REMARK   55  A    between atoms: _174  and  _176
REMARK   56  A    between atoms: _176  and  _177
REMARK   57  A    between atoms: _176  and  _179
REMARK   58  A    between atoms: _179  and  _180
REMARK   59  A    between atoms: _185  and  _187
REMARK   60  A    between atoms: _187  and  _188
REMARK   61  A    between atoms: _187  and  _190
REMARK   62  A    between atoms: _190  and  _191
REMARK   63  A    between atoms: _191  and  _192
REMARK   64  A    between atoms: _195  and  _197
REMARK   65  A    between atoms: _197  and  _198
REMARK   66  A    between atoms: _197  and  _200
REMARK   67  A    between atoms: _200  and  _201
REMARK   68  A    between atoms: _204  and  _206
REMARK   69  A    between atoms: _206  and  _207
REMARK   70  A    between atoms: _206  and  _209
REMARK   71  A    between atoms: _209  and  _210
REMARK   72  A    between atoms: _211  and  ZN_443
REMARK   73  A    between atoms: _215  and  _217
REMARK   74  A    between atoms: _217  and  _218
REMARK   75  A    between atoms: _217  and  _220
REMARK   76  A    between atoms: _220  and  _221
REMARK   77  A    between atoms: _224  and  _226
REMARK   78  A    between atoms: _226  and  _227
REMARK   79  A    between atoms: _226  and  _229
REMARK   80  A    between atoms: _232  and  _234
REMARK   81  A    between atoms: _234  and  _235
REMARK   82  A    between atoms: _234  and  _237
REMARK   83  A    between atoms: _237  and  _238
REMARK   84  A    between atoms: _243  and  _245
REMARK   85  A    between atoms: _245  and  _246
REMARK   86  A    between atoms: _245  and  _248
REMARK   87  A    between atoms: _248  and  _249
REMARK   88  A    between atoms: _255  and  _257
REMARK   89  A    between atoms: _257  and  _258
REMARK   90  A    between atoms: _260  and  _262
REMARK   91  A    between atoms: _262  and  _263
REMARK   92  A    between atoms: _262  and  _265
REMARK   93  A    between atoms: _268  and  _270
REMARK   94  A    between atoms: _270  and  _271
REMARK   95  A    between atoms: _270  and  _273
REMARK   96  A    between atoms: _273  and  _274
REMARK   97  A    between atoms: _274  and  _275
REMARK   98  A    between atoms: _280  and  _282
REMARK   99  A    between atoms: _282  and  _283
REMARK  100  A    between atoms: _282  and  _285
REMARK  101  A    between atoms: _285  and  _286
REMARK  102  A    between atoms: _289  and  _291
REMARK  103  A    between atoms: _291  and  _292
REMARK  104  A    between atoms: _295  and  _297
REMARK  105  A    between atoms: _297  and  _298
REMARK  106  A    between atoms: _297  and  _300
REMARK  107  A    between atoms: _303  and  _305
REMARK  108  A    between atoms: _305  and  _306
REMARK  109  A    between atoms: _305  and  _308
REMARK  110  A    between atoms: _308  and  _309
REMARK  111  A    between atoms: _312  and  _314
REMARK  112  A    between atoms: _314  and  _315
REMARK  113  A    between atoms: _317  and  _319
REMARK  114  A    between atoms: _319  and  _320
REMARK  115  A    between atoms: _319  and  _322
REMARK  116  A    between atoms: _322  and  _323
REMARK  117  A    between atoms: _325  and  _327
REMARK  118  A    between atoms: _327  and  _328
REMARK  119  A    between atoms: _327  and  _330
REMARK  120  A    between atoms: _330  and  _331
REMARK  121  A    between atoms: _334  and  _336
REMARK  122  A    between atoms: _336  and  _337
REMARK  123  A    between atoms: _336  and  _339
REMARK  124  A    between atoms: _339  and  _340
REMARK  125  A    between atoms: _343  and  _345
REMARK  126  A    between atoms: _345  and  _346
REMARK  127  A    between atoms: _345  and  _348
REMARK  128  A    between atoms: _348  and  _349
REMARK  129  A    between atoms: _353  and  _354
REMARK  130  A    between atoms: _360  and  _361
REMARK  131  A    between atoms: _366  and  _368
REMARK  132  A    between atoms: _368  and  _369
REMARK  133  A    between atoms: _368  and  _371
REMARK  134  A    between atoms: _371  and  _372
REMARK  135  A    between atoms: _375  and  _377
REMARK  136  A    between atoms: _377  and  _378
REMARK  137  A    between atoms: _377  and  _380
REMARK  138  A    between atoms: _380  and  _381
REMARK  139  A    between atoms: _384  and  _386
REMARK  140  A    between atoms: _386  and  _387
REMARK  141  A    between atoms: _386  and  _389
REMARK  142  A    between atoms: _391  and  _393
REMARK  143  A    between atoms: _393  and  _394
REMARK  144  A    between atoms: _393  and  _396
REMARK  145  A    between atoms: _399  and  _401
REMARK  146  A    between atoms: _401  and  _402
REMARK  147  A    between atoms: _401  and  _404
REMARK  148  A    between atoms: _404  and  _405
REMARK  149  A    between atoms: _415  and  _417
REMARK  150  A    between atoms: _417  and  _418
REMARK  151  A    between atoms: _417  and  _420
REMARK  152  A    between atoms: _420  and  _421
REMARK  153  A    between atoms: _426  and  _428
REMARK  154  A    between atoms: _428  and  _429
REMARK  155  A    between atoms: _428  and  _431
REMARK  156  A    between atoms: _431  and  _432
REMARK  157  A    between atoms: _432  and  _433
REMARK  158  A    between atoms: _433  and  _434
REMARK                            x       y       z     vdW  Elec       q    Type
REMARK                         _______ _______ _______ _____ _____    ______ ____
ROOT
ATOM      1  CB  PHE A   1      28.666   2.991  19.117  0.00  0.00    +0.051 C 
ENDROOT
BRANCH   1   2
ATOM      2  CG  PHE A   1      28.601   3.373  17.664  0.00  0.00    -0.020 A 
ATOM      3  CD2 PHE A   1      28.186   4.641  17.281  0.00  0.00    -0.004 A 
ATOM      4  CE2 PHE A   1      28.151   5.000  15.939  0.00  0.00    -0.000 A 
ATOM      5  CZ  PHE A   1      28.546   4.095  14.970  0.00  0.00    -0.000 A 
ATOM      6  CE1 PHE A   1      28.970   2.832  15.339  0.00  0.00    -0.000 A 
ATOM      7  CD1 PHE A   1      28.999   2.477  16.678  0.00  0.00    -0.004 A 
ENDBRANCH   1   2
BRANCH   1   8
ATOM      8  CA  PHE A   1      29.996   3.383  19.788  0.00  0.00    +0.137 C 
BRANCH   8   9
ATOM      9  N   PHE A   1      31.120   2.873  19.008  0.00  0.00    -0.239 NA
ATOM     10  H   PHE A   1      31.323   1.853  19.026  0.00  0.00    +0.142 HD
ENDBRANCH   8   9
BRANCH   8  11
ATOM     11  C   PHE A   1      30.082   2.875  21.220  0.00  0.00    +0.224 C 
ATOM     12  O   PHE A   1      29.427   1.903  21.586  0.00  0.00    -0.287 OA
ENDBRANCH   8  11
ENDBRANCH   1   8
TORSDOF 4
REMARK  Name = ../refined-set-2016/3r17/3r17_pocket.pdb
REMARK  158 active torsions:
REMARK  status: ('A' for Active; 'I' for Inactive)
REMARK    1  A    between atoms: _1  and  _3
REMARK    2  A    between atoms: _3  and  _4
REMARK    3  A    between atoms: _3  and  _6
REMARK    4  A    between atoms: _6  and  _7
REMARK    5  A    between atoms: _17  and  _19
REMARK    6  A    between atoms: _19  and  _20
REMARK    7  A    between atoms: _19  and  _22
REMARK    8  A    between atoms: _22  and  _23
REMARK    9  A    between atoms: _28  and  _29
REMARK   10  A    between atoms: _31  and  _33
REMARK   11  A    between atoms: _33  and  _34
REMARK   12  A    between atoms: _33  and  _36
REMARK   13  A    between atoms: _36  and  _37
REMARK   14  A    between atoms: _43  and  _45
REMARK   15  A    between atoms: _45  and  _46
REMARK   16  A    between atoms: _45  and  _48
REMARK   17  A    between atoms: _48  and  _49
REMARK   18  A    between atoms: _52  and  _53
REMARK   19  A    between atoms: _58  and  _60
REMARK   20  A    between atoms: _60  and  _61
REMARK   21  A    between atoms: _60  and  _63
REMARK   22  A    between atoms: _63  and  _64
REMARK   23  A    between atoms: _69  and  _71
REMARK   24  A    between atoms: _71  and  _72
REMARK   25  A    between atoms: _71  and  _74
REMARK   26  A    between atoms: _74  and  _75
REMARK   27  A    between atoms: _80  and  _82
REMARK   28  A    between atoms: _82  and  _83
REMARK   29  A    between atoms: _86  and  _88
REMARK   30  A    between atoms: _88  and  _89
REMARK   31  A    between atoms: _88  and  _91
REMARK   32  A    between atoms: _91  and  _92
REMARK   33  A    between atoms: _97  and  _99
REMARK   34  A    between atoms: _99  and  _100
REMARK   35  A    between atoms: _99  and  _102
REMARK   36  A    between atoms: _102  and  _103
REMARK   37  A    between atoms: _106  and  _108
REMARK   38  A    between atoms: _108  and  _109
REMARK   39  A    between atoms: _108  and  _111
REMARK   40  A    between atoms: _111  and  _112
REMARK   41  A    between atoms: _112  and  _113
REMARK   42  A    between atoms: _118  and  _120
REMARK   43  A    between atoms: _120  and  _121
REMARK   44  A    between atoms: _120  and  _123
REMARK   45  A    between atoms: _123  and  _124
REMARK   46  A    between atoms: _130  and  _132
REMARK   47  A    between atoms: _143  and  _146
REMARK   48  A    between atoms: _146  and  _147
REMARK   49  A    between atoms: _155  and  _156
REMARK   50  A    between atoms: _164  and  _166
REMARK   51  A    between atoms: _166  and  _167
REMARK   52  A    between atoms: _166  and  _169
REMARK   53  A    between atoms: _169  and  _170
REMARK   54  A    between atoms: _170  and  _171
REMARK   55  A    between atoms: _174  and  _176
REMARK   56  A    between atoms: _176  and  _177
REMARK   57  A    between atoms: _176  and  _179
REMARK   58  A    between atoms: _179  and  _180
REMARK   59  A    between atoms: _185  and  _187
REMARK   60  A    between atoms: _187  and  _188
REMARK   61  A    between atoms: _187  and  _190
REMARK   62  A    between atoms: _190  and  _191
REMARK   63  A    between atoms: _191  and  _192
REMARK   64  A    between atoms: _195  and  _197
REMARK   65  A    between atoms: _197  and  _198
REMARK   66  A    between atoms: _197  and  _200
REMARK   67  A    between atoms: _200  and  _201
REMARK   68  A    between atoms: _204  and  _206
REMARK   69  A    between atoms: _206  and  _207
REMARK   70  A    between atoms: _206  and  _209
REMARK   71  A    between atoms: _209  and  _210
REMARK   72  A    between atoms: _211  and  ZN_443
REMARK   73  A    between atoms: _215  and  _217
REMARK   74  A    between atoms: _217  and  _218
REMARK   75  A    between atoms: _217  and  _220
REMARK   76  A    between atoms: _220  and  _221
REMARK   77  A    between atoms: _224  and  _226
REMARK   78  A    between atoms: _226  and  _227
REMARK   79  A    between atoms: _226  and  _229
REMARK   80  A    between atoms: _232  and  _234
REMARK   81  A    between atoms: _234  and  _235
REMARK   82  A    between atoms: _234  and  _237
REMARK   83  A    between atoms: _237  and  _238
REMARK   84  A    between atoms: _243  and  _245
REMARK   85  A    between atoms: _245  and  _246
REMARK   86  A    between atoms: _245  and  _248
REMARK   87  A    between atoms: _248  and  _249
REMARK   88  A    between atoms: _255  and  _257
REMARK   89  A    between atoms: _257  and  _258
REMARK   90  A    between atoms: _260  and  _262
REMARK   91  A    between atoms: _262  and  _263
REMARK   92  A    between atoms: _262  and  _265
REMARK   93  A    between atoms: _268  and  _270
REMARK   94  A    between atoms: _270  and  _271
REMARK   95  A    between atoms: _270  and  _273
REMARK   96  A    between atoms: _273  and  _274
REMARK   97  A    between atoms: _274  and  _275
REMARK   98  A    between atoms: _280  and  _282
REMARK   99  A    between atoms: _282  and  _283
REMARK  100  A    between atoms: _282  and  _285
REMARK  101  A    between atoms: _285  and  _286
REMARK  102  A    between atoms: _289  and  _291
REMARK  103  A    between atoms: _291  and  _292
REMARK  104  A    between atoms: _295  and  _297
REMARK  105  A    between atoms: _297  and  _298
REMARK  106  A    between atoms: _297  and  _300
REMARK  107  A    between atoms: _303  and  _305
REMARK  108  A    between atoms: _305  and  _306
REMARK  109  A    between atoms: _305  and  _308
REMARK  110  A    between atoms: _308  and  _309
REMARK  111  A    between atoms: _312  and  _314
REMARK  112  A    between atoms: _314  and  _315
REMARK  113  A    between atoms: _317  and  _319
REMARK  114  A    between atoms: _319  and  _320
REMARK  115  A    between atoms: _319  and  _322
REMARK  116  A    between atoms: _322  and  _323
REMARK  117  A    between atoms: _325  and  _327
REMARK  118  A    between atoms: _327  and  _328
REMARK  119  A    between atoms: _327  and  _330
REMARK  120  A    between atoms: _330  and  _331
REMARK  121  A    between atoms: _334  and  _336
REMARK  122  A    between atoms: _336  and  _337
REMARK  123  A    between atoms: _336  and  _339
REMARK  124  A    between atoms: _339  and  _340
REMARK  125  A    between atoms: _343  and  _345
REMARK  126  A    between atoms: _345  and  _346
REMARK  127  A    between atoms: _345  and  _348
REMARK  128  A    between atoms: _348  and  _349
REMARK  129  A    between atoms: _353  and  _354
REMARK  130  A    between atoms: _360  and  _361
REMARK  131  A    between atoms: _366  and  _368
REMARK  132  A    between atoms: _368  and  _369
REMARK  133  A    between atoms: _368  and  _371
REMARK  134  A    between atoms: _371  and  _372
REMARK  135  A    between atoms: _375  and  _377
REMARK  136  A    between atoms: _377  and  _378
REMARK  137  A    between atoms: _377  and  _380
REMARK  138  A    between atoms: _380  and  _381
REMARK  139  A    between atoms: _384  and  _386
REMARK  140  A    between atoms: _386  and  _387
REMARK  141  A    between atoms: _386  and  _389
REMARK  142  A    between atoms: _391  and  _393
REMARK  143  A    between atoms: _393  and  _394
REMARK  144  A    between atoms: _393  and  _396
REMARK  145  A    between atoms: _399  and  _401
REMARK  146  A    between atoms: _401  and  _402
REMARK  147  A    between atoms: _401  and  _404
REMARK  148  A    between atoms: _404  and  _405
REMARK  149  A    between atoms: _415  and  _417
REMARK  150  A    between atoms: _417  and  _418
REMARK  151  A    between atoms: _417  and  _420
REMARK  152  A    between atoms: _420  and  _421
REMARK  153  A    between atoms: _426  and  _428
REMARK  154  A    between atoms: _428  and  _429
REMARK  155  A    between atoms: _428  and  _431
REMARK  156  A    between atoms: _431  and  _432
REMARK  157  A    between atoms: _432  and  _433
REMARK  158  A    between atoms: _433  and  _434
REMARK                            x       y       z     vdW  Elec       q    Type
REMARK                         _______ _______ _______ _____ _____    ______ ____
ROOT
ATOM      1  C   SER A   1      18.928  -3.317  23.132  0.00  0.00    +0.244 C 
ATOM      2  N   PRO A   2      18.303  -4.469  22.861  0.00  0.00    -0.273 N 
ATOM      3  CA  PRO A   2      17.143  -4.990  23.581  0.00  0.00    +0.140 C 
ATOM      4  CB  PRO A   2      16.582  -6.026  22.597  0.00  0.00    +0.030 C 
ATOM      5  CG  PRO A   2      17.826  -6.579  21.941  0.00  0.00    +0.024 C 
ATOM      6  CD  PRO A   2      18.720  -5.361  21.765  0.00  0.00    +0.094 C 
ATOM      7  O   SER A   1      19.872  -2.912  22.472  0.00  0.00    -0.273 OA
ENDROOT
BRANCH   3   8
ATOM      8  C   PRO A   2      17.546  -5.684  24.880  0.00  0.00    +0.227 C 
ATOM      9  O   PRO A   2      18.741  -5.748  25.216  0.00  0.00    -0.286 OA
ENDBRANCH   3   8
BRANCH   1  10
ATOM     10  CA  SER A   1      18.390  -2.488  24.283  0.00  0.00    +0.175 C 
BRANCH  10  11
ATOM     11  N   SER A   1      19.445  -1.600  24.769  0.00  0.00    -0.236 NA
ATOM     12  H   SER A   1      19.955  -1.012  24.080  0.00  0.00    +0.142 HD
ENDBRANCH  10  11
BRANCH  10  13
ATOM     13  CB  SER A   1      17.220  -1.665  23.766  0.00  0.00    +0.163 C 
BRANCH  13  14
ATOM     14  OG  SER A   1      16.601  -0.945  24.818  0.00  0.00    -0.380 OA
ATOM     15  H   SER A   1      16.266  -1.581  25.499  0.00  0.00    +0.211 HD
ENDBRANCH  13  14
ENDBRANCH  10  13
ENDBRANCH   1  10
TORSDOF 5
REMARK  Name = ../refined-set-2016/3r17/3r17_pocket.pdb
REMARK  158 active torsions:
REMARK  status: ('A' for Active; 'I' for Inactive)
REMARK    1  A    between atoms: _1  and  _3
REMARK    2  A    between atoms: _3  and  _4
REMARK    3  A    between atoms: _3  and  _6
REMARK    4  A    between atoms: _6  and  _7
REMARK    5  A    between atoms: _17  and  _19
REMARK    6  A    between atoms: _19  and  _20
REMARK    7  A    between atoms: _19  and  _22
REMARK    8  A    between atoms: _22  and  _23
REMARK    9  A    between atoms: _28  and  _29
REMARK   10  A    between atoms: _31  and  _33
REMARK   11  A    between atoms: _33  and  _34
REMARK   12  A    between atoms: _33  and  _36
REMARK   13  A    between atoms: _36  and  _37
REMARK   14  A    between atoms: _43  and  _45
REMARK   15  A    between atoms: _45  and  _46
REMARK   16  A    between atoms: _45  and  _48
REMARK   17  A    between atoms: _48  and  _49
REMARK   18  A    between atoms: _52  and  _53
REMARK   19  A    between atoms: _58  and  _60
REMARK   20  A    between atoms: _60  and  _61
REMARK   21  A    between atoms: _60  and  _63
REMARK   22  A    between atoms: _63  and  _64
REMARK   23  A    between atoms: _69  and  _71
REMARK   24  A    between atoms: _71  and  _72
REMARK   25  A    between atoms: _71  and  _74
REMARK   26  A    between atoms: _74  and  _75
REMARK   27  A    between atoms: _80  and  _82
REMARK   28  A    between atoms: _82  and  _83
REMARK   29  A    between atoms: _86  and  _88
REMARK   30  A    between atoms: _88  and  _89
REMARK   31  A    between atoms: _88  and  _91
REMARK   32  A    between atoms: _91  and  _92
REMARK   33  A    between atoms: _97  and  _99
REMARK   34  A    between atoms: _99  and  _100
REMARK   35  A    between atoms: _99  and  _102
REMARK   36  A    between atoms: _102  and  _103
REMARK   37  A    between atoms: _106  and  _108
REMARK   38  A    between atoms: _108  and  _109
REMARK   39  A    between atoms: _108  and  _111
REMARK   40  A    between atoms: _111  and  _112
REMARK   41  A    between atoms: _112  and  _113
REMARK   42  A    between atoms: _118  and  _120
REMARK   43  A    between atoms: _120  and  _121
REMARK   44  A    between atoms: _120  and  _123
REMARK   45  A    between atoms: _123  and  _124
REMARK   46  A    between atoms: _130  and  _132
REMARK   47  A    between atoms: _143  and  _146
REMARK   48  A    between atoms: _146  and  _147
REMARK   49  A    between atoms: _155  and  _156
REMARK   50  A    between atoms: _164  and  _166
REMARK   51  A    between atoms: _166  and  _167
REMARK   52  A    between atoms: _166  and  _169
REMARK   53  A    between atoms: _169  and  _170
REMARK   54  A    between atoms: _170  and  _171
REMARK   55  A    between atoms: _174  and  _176
REMARK   56  A    between atoms: _176  and  _177
REMARK   57  A    between atoms: _176  and  _179
REMARK   58  A    between atoms: _179  and  _180
REMARK   59  A    between atoms: _185  and  _187
REMARK   60  A    between atoms: _187  and  _188
REMARK   61  A    between atoms: _187  and  _190
REMARK   62  A    between atoms: _190  and  _191
REMARK   63  A    between atoms: _191  and  _192
REMARK   64  A    between atoms: _195  and  _197
REMARK   65  A    between atoms: _197  and  _198
REMARK   66  A    between atoms: _197  and  _200
REMARK   67  A    between atoms: _200  and  _201
REMARK   68  A    between atoms: _204  and  _206
REMARK   69  A    between atoms: _206  and  _207
REMARK   70  A    between atoms: _206  and  _209
REMARK   71  A    between atoms: _209  and  _210
REMARK   72  A    between atoms: _211  and  ZN_443
REMARK   73  A    between atoms: _215  and  _217
REMARK   74  A    between atoms: _217  and  _218
REMARK   75  A    between atoms: _217  and  _220
REMARK   76  A    between atoms: _220  and  _221
REMARK   77  A    between atoms: _224  and  _226
REMARK   78  A    between atoms: _226  and  _227
REMARK   79  A    between atoms: _226  and  _229
REMARK   80  A    between atoms: _232  and  _234
REMARK   81  A    between atoms: _234  and  _235
REMARK   82  A    between atoms: _234  and  _237
REMARK   83  A    between atoms: _237  and  _238
REMARK   84  A    between atoms: _243  and  _245
REMARK   85  A    between atoms: _245  and  _246
REMARK   86  A    between atoms: _245  and  _248
REMARK   87  A    between atoms: _248  and  _249
REMARK   88  A    between atoms: _255  and  _257
REMARK   89  A    between atoms: _257  and  _258
REMARK   90  A    between atoms: _260  and  _262
REMARK   91  A    between atoms: _262  and  _263
REMARK   92  A    between atoms: _262  and  _265
REMARK   93  A    between atoms: _268  and  _270
REMARK   94  A    between atoms: _270  and  _271
REMARK   95  A    between atoms: _270  and  _273
REMARK   96  A    between atoms: _273  and  _274
REMARK   97  A    between atoms: _274  and  _275
REMARK   98  A    between atoms: _280  and  _282
REMARK   99  A    between atoms: _282  and  _283
REMARK  100  A    between atoms: _282  and  _285
REMARK  101  A    between atoms: _285  and  _286
REMARK  102  A    between atoms: _289  and  _291
REMARK  103  A    between atoms: _291  and  _292
REMARK  104  A    between atoms: _295  and  _297
REMARK  105  A    between atoms: _297  and  _298
REMARK  106  A    between atoms: _297  and  _300
REMARK  107  A    between atoms: _303  and  _305
REMARK  108  A    between atoms: _305  and  _306
REMARK  109  A    between atoms: _305  and  _308
REMARK  110  A    between atoms: _308  and  _309
REMARK  111  A    between atoms: _312  and  _314
REMARK  112  A    between atoms: _314  and  _315
REMARK  113  A    between atoms: _317  and  _319
REMARK  114  A    between atoms: _319  and  _320
REMARK  115  A    between atoms: _319  and  _322
REMARK  116  A    between atoms: _322  and  _323
REMARK  117  A    between atoms: _325  and  _327
REMARK  118  A    between atoms: _327  and  _328
REMARK  119  A    between atoms: _327  and  _330
REMARK  120  A    between atoms: _330  and  _331
REMARK  121  A    between atoms: _334  and  _336
REMARK  122  A    between atoms: _336  and  _337
REMARK  123  A    between atoms: _336  and  _339
REMARK  124  A    between atoms: _339  and  _340
REMARK  125  A    between atoms: _343  and  _345
REMARK  126  A    between atoms: _345  and  _346
REMARK  127  A    between atoms: _345  and  _348
REMARK  128  A    between atoms: _348  and  _349
REMARK  129  A    between atoms: _353  and  _354
REMARK  130  A    between atoms: _360  and  _361
REMARK  131  A    between atoms: _366  and  _368
REMARK  132  A    between atoms: _368  and  _369
REMARK  133  A    between atoms: _368  and  _371
REMARK  134  A    between atoms: _371  and  _372
REMARK  135  A    between atoms: _375  and  _377
REMARK  136  A    between atoms: _377  and  _378
REMARK  137  A    between atoms: _377  and  _380
REMARK  138  A    between atoms: _380  and  _381
REMARK  139  A    between atoms: _384  and  _386
REMARK  140  A    between atoms: _386  and  _387
REMARK  141  A    between atoms: _386  and  _389
REMARK  142  A    between atoms: _391  and  _393
REMARK  143  A    between atoms: _393  and  _394
REMARK  144  A    between atoms: _393  and  _396
REMARK  145  A    between atoms: _399  and  _401
REMARK  146  A    between atoms: _401  and  _402
REMARK  147  A    between atoms: _401  and  _404
REMARK  148  A    between atoms: _404  and  _405
REMARK  149  A    between atoms: _415  and  _417
REMARK  150  A    between atoms: _417  and  _418
REMARK  151  A    between atoms: _417  and  _420
REMARK  152  A    between atoms: _420  and  _421
REMARK  153  A    between atoms: _426  and  _428
REMARK  154  A    between atoms: _428  and  _429
REMARK  155  A    between atoms: _428  and  _431
REMARK  156  A    between atoms: _431  and  _432
REMARK  157  A    between atoms: _432  and  _433
REMARK  158  A    between atoms: _433  and  _434
REMARK                            x       y       z     vdW  Elec       q    Type
REMARK                         _______ _______ _______ _____ _____    ______ ____
ROOT
ATOM      1  CB  ASN A   1      18.538   1.926   5.330  0.00  0.00    +0.110 C 
ENDROOT
BRANCH   1   2
ATOM      2  CG  ASN A   1      18.197   1.069   6.527  0.00  0.00    +0.221 C 
ATOM      3  ND2 ASN A   1      17.495   1.657   7.495  0.00  0.00    -0.329 N 
ATOM      4 HD21 ASN A   1      17.230   1.120   8.345  0.00  0.00    +0.145 HD
ATOM      5 HD22 ASN A   1      17.212   2.653   7.400  0.00  0.00    +0.145 HD
ATOM      6  OD1 ASN A   1      18.559  -0.112   6.589  0.00  0.00    -0.275 OA
ENDBRANCH   1   2
BRANCH   1   7
ATOM      7  CA  ASN A   1      18.912   1.094   4.088  0.00  0.00    +0.142 C 
BRANCH   7   8
ATOM      8  N   ASN A   1      17.789   0.260   3.638  0.00  0.00    -0.239 NA
ATOM      9  H   ASN A   1      17.247  -0.290   4.335  0.00  0.00    +0.142 HD
ENDBRANCH   7   8
BRANCH   7  10
ATOM     10  C   ASN A   1      20.177   0.293   4.356  0.00  0.00    +0.225 C 
ATOM     11  O   ASN A   1      21.137   0.819   4.911  0.00  0.00    -0.287 OA
ENDBRANCH   7  10
ENDBRANCH   1   7
TORSDOF 4
REMARK  Name = ../refined-set-2016/3r17/3r17_pocket.pdb
REMARK  158 active torsions:
REMARK  status: ('A' for Active; 'I' for Inactive)
REMARK    1  A    between atoms: _1  and  _3
REMARK    2  A    between atoms: _3  and  _4
REMARK    3  A    between atoms: _3  and  _6
REMARK    4  A    between atoms: _6  and  _7
REMARK    5  A    between atoms: _17  and  _19
REMARK    6  A    between atoms: _19  and  _20
REMARK    7  A    between atoms: _19  and  _22
REMARK    8  A    between atoms: _22  and  _23
REMARK    9  A    between atoms: _28  and  _29
REMARK   10  A    between atoms: _31  and  _33
REMARK   11  A    between atoms: _33  and  _34
REMARK   12  A    between atoms: _33  and  _36
REMARK   13  A    between atoms: _36  and  _37
REMARK   14  A    between atoms: _43  and  _45
REMARK   15  A    between atoms: _45  and  _46
REMARK   16  A    between atoms: _45  and  _48
REMARK   17  A    between atoms: _48  and  _49
REMARK   18  A    between atoms: _52  and  _53
REMARK   19  A    between atoms: _58  and  _60
REMARK   20  A    between atoms: _60  and  _61
REMARK   21  A    between atoms: _60  and  _63
REMARK   22  A    between atoms: _63  and  _64
REMARK   23  A    between atoms: _69  and  _71
REMARK   24  A    between atoms: _71  and  _72
REMARK   25  A    between atoms: _71  and  _74
REMARK   26  A    between atoms: _74  and  _75
REMARK   27  A    between atoms: _80  and  _82
REMARK   28  A    between atoms: _82  and  _83
REMARK   29  A    between atoms: _86  and  _88
REMARK   30  A    between atoms: _88  and  _89
REMARK   31  A    between atoms: _88  and  _91
REMARK   32  A    between atoms: _91  and  _92
REMARK   33  A    between atoms: _97  and  _99
REMARK   34  A    between atoms: _99  and  _100
REMARK   35  A    between atoms: _99  and  _102
REMARK   36  A    between atoms: _102  and  _103
REMARK   37  A    between atoms: _106  and  _108
REMARK   38  A    between atoms: _108  and  _109
REMARK   39  A    between atoms: _108  and  _111
REMARK   40  A    between atoms: _111  and  _112
REMARK   41  A    between atoms: _112  and  _113
REMARK   42  A    between atoms: _118  and  _120
REMARK   43  A    between atoms: _120  and  _121
REMARK   44  A    between atoms: _120  and  _123
REMARK   45  A    between atoms: _123  and  _124
REMARK   46  A    between atoms: _130  and  _132
REMARK   47  A    between atoms: _143  and  _146
REMARK   48  A    between atoms: _146  and  _147
REMARK   49  A    between atoms: _155  and  _156
REMARK   50  A    between atoms: _164  and  _166
REMARK   51  A    between atoms: _166  and  _167
REMARK   52  A    between atoms: _166  and  _169
REMARK   53  A    between atoms: _169  and  _170
REMARK   54  A    between atoms: _170  and  _171
REMARK   55  A    between atoms: _174  and  _176
REMARK   56  A    between atoms: _176  and  _177
REMARK   57  A    between atoms: _176  and  _179
REMARK   58  A    between atoms: _179  and  _180
REMARK   59  A    between atoms: _185  and  _187
REMARK   60  A    between atoms: _187  and  _188
REMARK   61  A    between atoms: _187  and  _190
REMARK   62  A    between atoms: _190  and  _191
REMARK   63  A    between atoms: _191  and  _192
REMARK   64  A    between atoms: _195  and  _197
REMARK   65  A    between atoms: _197  and  _198
REMARK   66  A    between atoms: _197  and  _200
REMARK   67  A    between atoms: _200  and  _201
REMARK   68  A    between atoms: _204  and  _206
REMARK   69  A    between atoms: _206  and  _207
REMARK   70  A    between atoms: _206  and  _209
REMARK   71  A    between atoms: _209  and  _210
REMARK   72  A    between atoms: _211  and  ZN_443
REMARK   73  A    between atoms: _215  and  _217
REMARK   74  A    between atoms: _217  and  _218
REMARK   75  A    between atoms: _217  and  _220
REMARK   76  A    between atoms: _220  and  _221
REMARK   77  A    between atoms: _224  and  _226
REMARK   78  A    between atoms: _226  and  _227
REMARK   79  A    between atoms: _226  and  _229
REMARK   80  A    between atoms: _232  and  _234
REMARK   81  A    between atoms: _234  and  _235
REMARK   82  A    between atoms: _234  and  _237
REMARK   83  A    between atoms: _237  and  _238
REMARK   84  A    between atoms: _243  and  _245
REMARK   85  A    between atoms: _245  and  _246
REMARK   86  A    between atoms: _245  and  _248
REMARK   87  A    between atoms: _248  and  _249
REMARK   88  A    between atoms: _255  and  _257
REMARK   89  A    between atoms: _257  and  _258
REMARK   90  A    between atoms: _260  and  _262
REMARK   91  A    between atoms: _262  and  _263
REMARK   92  A    between atoms: _262  and  _265
REMARK   93  A    between atoms: _268  and  _270
REMARK   94  A    between atoms: _270  and  _271
REMARK   95  A    between atoms: _270  and  _273
REMARK   96  A    between atoms: _273  and  _274
REMARK   97  A    between atoms: _274  and  _275
REMARK   98  A    between atoms: _280  and  _282
REMARK   99  A    between atoms: _282  and  _283
REMARK  100  A    between atoms: _282  and  _285
REMARK  101  A    between atoms: _285  and  _286
REMARK  102  A    between atoms: _289  and  _291
REMARK  103  A    between atoms: _291  and  _292
REMARK  104  A    between atoms: _295  and  _297
REMARK  105  A    between atoms: _297  and  _298
REMARK  106  A    between atoms: _297  and  _300
REMARK  107  A    between atoms: _303  and  _305
REMARK  108  A    between atoms: _305  and  _306
REMARK  109  A    between atoms: _305  and  _308
REMARK  110  A    between atoms: _308  and  _309
REMARK  111  A    between atoms: _312  and  _314
REMARK  112  A    between atoms: _314  and  _315
REMARK  113  A    between atoms: _317  and  _319
REMARK  114  A    between atoms: _319  and  _320
REMARK  115  A    between atoms: _319  and  _322
REMARK  116  A    between atoms: _322  and  _323
REMARK  117  A    between atoms: _325  and  _327
REMARK  118  A    between atoms: _327  and  _328
REMARK  119  A    between atoms: _327  and  _330
REMARK  120  A    between atoms: _330  and  _331
REMARK  121  A    between atoms: _334  and  _336
REMARK  122  A    between atoms: _336  and  _337
REMARK  123  A    between atoms: _336  and  _339
REMARK  124  A    between atoms: _339  and  _340
REMARK  125  A    between atoms: _343  and  _345
REMARK  126  A    between atoms: _345  and  _346
REMARK  127  A    between atoms: _345  and  _348
REMARK  128  A    between atoms: _348  and  _349
REMARK  129  A    between atoms: _353  and  _354
REMARK  130  A    between atoms: _360  and  _361
REMARK  131  A    between atoms: _366  and  _368
REMARK  132  A    between atoms: _368  and  _369
REMARK  133  A    between atoms: _368  and  _371
REMARK  134  A    between atoms: _371  and  _372
REMARK  135  A    between atoms: _375  and  _377
REMARK  136  A    between atoms: _377  and  _378
REMARK  137  A    between atoms: _377  and  _380
REMARK  138  A    between atoms: _380  and  _381
REMARK  139  A    between atoms: _384  and  _386
REMARK  140  A    between atoms: _386  and  _387
REMARK  141  A    between atoms: _386  and  _389
REMARK  142  A    between atoms: _391  and  _393
REMARK  143  A    between atoms: _393  and  _394
REMARK  144  A    between atoms: _393  and  _396
REMARK  145  A    between atoms: _399  and  _401
REMARK  146  A    between atoms: _401  and  _402
REMARK  147  A    between atoms: _401  and  _404
REMARK  148  A    between atoms: _404  and  _405
REMARK  149  A    between atoms: _415  and  _417
REMARK  150  A    between atoms: _417  and  _418
REMARK  151  A    between atoms: _417  and  _420
REMARK  152  A    between atoms: _420  and  _421
REMARK  153  A    between atoms: _426  and  _428
REMARK  154  A    between atoms: _428  and  _429
REMARK  155  A    between atoms: _428  and  _431
REMARK  156  A    between atoms: _431  and  _432
REMARK  157  A    between atoms: _432  and  _433
REMARK  158  A    between atoms: _433  and  _434
REMARK                            x       y       z     vdW  Elec       q    Type
REMARK                         _______ _______ _______ _____ _____    ______ ____
ROOT
ATOM      1  CA  HIS A   1      20.394  -2.897   7.675  0.00  0.00    +0.151 C 
ENDROOT
BRANCH   1   2
ATOM      2  C   HIS A   1      19.013  -3.499   7.897  0.00  0.00    +0.239 C 
ATOM      3  O   HIS A   1      18.872  -4.516   8.574  0.00  0.00    -0.274 OA
ATOM      4  N   ALA A   2      18.006  -2.849   7.316  0.00  0.00    -0.298 N 
ATOM      5  H   ALA A   2      18.219  -1.956   6.827  0.00  0.00    +0.150 HD
BRANCH   4   6
ATOM      6  CA  ALA A   2      16.627  -3.311   7.324  0.00  0.00    +0.137 C 
ATOM      7  CB  ALA A   2      15.989  -3.090   8.700  0.00  0.00    +0.030 C 
BRANCH   6   8
ATOM      8  C   ALA A   2      15.870  -2.546   6.236  0.00  0.00    +0.227 C 
ATOM      9  O   ALA A   2      16.492  -1.878   5.405  0.00  0.00    -0.286 OA
ENDBRANCH   6   8
ENDBRANCH   4   6
ENDBRANCH   1   2
BRANCH   1  10
ATOM     10  N   HIS A   1      20.481  -2.235   6.364  0.00  0.00    -0.238 NA
ATOM     11  H   HIS A   1      19.796  -1.486   6.139  0.00  0.00    +0.142 HD
ENDBRANCH   1  10
BRANCH   1  12
ATOM     12  CB  HIS A   1      20.697  -1.910   8.809  0.00  0.00    +0.074 C 
BRANCH  12  13
ATOM     13  CG  HIS A   1      22.022  -1.229   8.665  0.00  0.00    +0.082 A 
ATOM     14  CD2 HIS A   1      23.284  -1.702   8.789  0.00  0.00    +0.115 A 
ATOM     15  NE2 HIS A   1      24.138  -0.655   8.534  0.00  0.00    -0.221 NA
ATOM     16  CE1 HIS A   1      23.424   0.421   8.255  0.00  0.00    +0.199 A 
ATOM     17  ND1 HIS A   1      22.142   0.101   8.325  0.00  0.00    -0.227 NA
ENDBRANCH  12  13
ENDBRANCH   1  12
TORSDOF 6
REMARK  Name = ../refined-set-2016/3r17/3r17_pocket.pdb
REMARK  158 active torsions:
REMARK  status: ('A' for Active; 'I' for Inactive)
REMARK    1  A    between atoms: _1  and  _3
REMARK    2  A    between atoms: _3  and  _4
REMARK    3  A    between atoms: _3  and  _6
REMARK    4  A    between atoms: _6  and  _7
REMARK    5  A    between atoms: _17  and  _19
REMARK    6  A    between atoms: _19  and  _20
REMARK    7  A    between atoms: _19  and  _22
REMARK    8  A    between atoms: _22  and  _23
REMARK    9  A    between atoms: _28  and  _29
REMARK   10  A    between atoms: _31  and  _33
REMARK   11  A    between atoms: _33  and  _34
REMARK   12  A    between atoms: _33  and  _36
REMARK   13  A    between atoms: _36  and  _37
REMARK   14  A    between atoms: _43  and  _45
REMARK   15  A    between atoms: _45  and  _46
REMARK   16  A    between atoms: _45  and  _48
REMARK   17  A    between atoms: _48  and  _49
REMARK   18  A    between atoms: _52  and  _53
REMARK   19  A    between atoms: _58  and  _60
REMARK   20  A    between atoms: _60  and  _61
REMARK   21  A    between atoms: _60  and  _63
REMARK   22  A    between atoms: _63  and  _64
REMARK   23  A    between atoms: _69  and  _71
REMARK   24  A    between atoms: _71  and  _72
REMARK   25  A    between atoms: _71  and  _74
REMARK   26  A    between atoms: _74  and  _75
REMARK   27  A    between atoms: _80  and  _82
REMARK   28  A    between atoms: _82  and  _83
REMARK   29  A    between atoms: _86  and  _88
REMARK   30  A    between atoms: _88  and  _89
REMARK   31  A    between atoms: _88  and  _91
REMARK   32  A    between atoms: _91  and  _92
REMARK   33  A    between atoms: _97  and  _99
REMARK   34  A    between atoms: _99  and  _100
REMARK   35  A    between atoms: _99  and  _102
REMARK   36  A    between atoms: _102  and  _103
REMARK   37  A    between atoms: _106  and  _108
REMARK   38  A    between atoms: _108  and  _109
REMARK   39  A    between atoms: _108  and  _111
REMARK   40  A    between atoms: _111  and  _112
REMARK   41  A    between atoms: _112  and  _113
REMARK   42  A    between atoms: _118  and  _120
REMARK   43  A    between atoms: _120  and  _121
REMARK   44  A    between atoms: _120  and  _123
REMARK   45  A    between atoms: _123  and  _124
REMARK   46  A    between atoms: _130  and  _132
REMARK   47  A    between atoms: _143  and  _146
REMARK   48  A    between atoms: _146  and  _147
REMARK   49  A    between atoms: _155  and  _156
REMARK   50  A    between atoms: _164  and  _166
REMARK   51  A    between atoms: _166  and  _167
REMARK   52  A    between atoms: _166  and  _169
REMARK   53  A    between atoms: _169  and  _170
REMARK   54  A    between atoms: _170  and  _171
REMARK   55  A    between atoms: _174  and  _176
REMARK   56  A    between atoms: _176  and  _177
REMARK   57  A    between atoms: _176  and  _179
REMARK   58  A    between atoms: _179  and  _180
REMARK   59  A    between atoms: _185  and  _187
REMARK   60  A    between atoms: _187  and  _188
REMARK   61  A    between atoms: _187  and  _190
REMARK   62  A    between atoms: _190  and  _191
REMARK   63  A    between atoms: _191  and  _192
REMARK   64  A    between atoms: _195  and  _197
REMARK   65  A    between atoms: _197  and  _198
REMARK   66  A    between atoms: _197  and  _200
REMARK   67  A    between atoms: _200  and  _201
REMARK   68  A    between atoms: _204  and  _206
REMARK   69  A    between atoms: _206  and  _207
REMARK   70  A    between atoms: _206  and  _209
REMARK   71  A    between atoms: _209  and  _210
REMARK   72  A    between atoms: _211  and  ZN_443
REMARK   73  A    between atoms: _215  and  _217
REMARK   74  A    between atoms: _217  and  _218
REMARK   75  A    between atoms: _217  and  _220
REMARK   76  A    between atoms: _220  and  _221
REMARK   77  A    between atoms: _224  and  _226
REMARK   78  A    between atoms: _226  and  _227
REMARK   79  A    between atoms: _226  and  _229
REMARK   80  A    between atoms: _232  and  _234
REMARK   81  A    between atoms: _234  and  _235
REMARK   82  A    between atoms: _234  and  _237
REMARK   83  A    between atoms: _237  and  _238
REMARK   84  A    between atoms: _243  and  _245
REMARK   85  A    between atoms: _245  and  _246
REMARK   86  A    between atoms: _245  and  _248
REMARK   87  A    between atoms: _248  and  _249
REMARK   88  A    between atoms: _255  and  _257
REMARK   89  A    between atoms: _257  and  _258
REMARK   90  A    between atoms: _260  and  _262
REMARK   91  A    between atoms: _262  and  _263
REMARK   92  A    between atoms: _262  and  _265
REMARK   93  A    between atoms: _268  and  _270
REMARK   94  A    between atoms: _270  and  _271
REMARK   95  A    between atoms: _270  and  _273
REMARK   96  A    between atoms: _273  and  _274
REMARK   97  A    between atoms: _274  and  _275
REMARK   98  A    between atoms: _280  and  _282
REMARK   99  A    between atoms: _282  and  _283
REMARK  100  A    between atoms: _282  and  _285
REMARK  101  A    between atoms: _285  and  _286
REMARK  102  A    between atoms: _289  and  _291
REMARK  103  A    between atoms: _291  and  _292
REMARK  104  A    between atoms: _295  and  _297
REMARK  105  A    between atoms: _297  and  _298
REMARK  106  A    between atoms: _297  and  _300
REMARK  107  A    between atoms: _303  and  _305
REMARK  108  A    between atoms: _305  and  _306
REMARK  109  A    between atoms: _305  and  _308
REMARK  110  A    between atoms: _308  and  _309
REMARK  111  A    between atoms: _312  and  _314
REMARK  112  A    between atoms: _314  and  _315
REMARK  113  A    between atoms: _317  and  _319
REMARK  114  A    between atoms: _319  and  _320
REMARK  115  A    between atoms: _319  and  _322
REMARK  116  A    between atoms: _322  and  _323
REMARK  117  A    between atoms: _325  and  _327
REMARK  118  A    between atoms: _327  and  _328
REMARK  119  A    between atoms: _327  and  _330
REMARK  120  A    between atoms: _330  and  _331
REMARK  121  A    between atoms: _334  and  _336
REMARK  122  A    between atoms: _336  and  _337
REMARK  123  A    between atoms: _336  and  _339
REMARK  124  A    between atoms: _339  and  _340
REMARK  125  A    between atoms: _343  and  _345
REMARK  126  A    between atoms: _345  and  _346
REMARK  127  A    between atoms: _345  and  _348
REMARK  128  A    between atoms: _348  and  _349
REMARK  129  A    between atoms: _353  and  _354
REMARK  130  A    between atoms: _360  and  _361
REMARK  131  A    between atoms: _366  and  _368
REMARK  132  A    between atoms: _368  and  _369
REMARK  133  A    between atoms: _368  and  _371
REMARK  134  A    between atoms: _371  and  _372
REMARK  135  A    between atoms: _375  and  _377
REMARK  136  A    between atoms: _377  and  _378
REMARK  137  A    between atoms: _377  and  _380
REMARK  138  A    between atoms: _380  and  _381
REMARK  139  A    between atoms: _384  and  _386
REMARK  140  A    between atoms: _386  and  _387
REMARK  141  A    between atoms: _386  and  _389
REMARK  142  A    between atoms: _391  and  _393
REMARK  143  A    between atoms: _393  and  _394
REMARK  144  A    between atoms: _393  and  _396
REMARK  145  A    between atoms: _399  and  _401
REMARK  146  A    between atoms: _401  and  _402
REMARK  147  A    between atoms: _401  and  _404
REMARK  148  A    between atoms: _404  and  _405
REMARK  149  A    between atoms: _415  and  _417
REMARK  150  A    between atoms: _417  and  _418
REMARK  151  A    between atoms: _417  and  _420
REMARK  152  A    between atoms: _420  and  _421
REMARK  153  A    between atoms: _426  and  _428
REMARK  154  A    between atoms: _428  and  _429
REMARK  155  A    between atoms: _428  and  _431
REMARK  156  A    between atoms: _431  and  _432
REMARK  157  A    between atoms: _432  and  _433
REMARK  158  A    between atoms: _433  and  _434
REMARK                            x       y       z     vdW  Elec       q    Type
REMARK                         _______ _______ _______ _____ _____    ______ ____
ROOT
ATOM      1  CB  ASN A   1      12.582   2.481   7.070  0.00  0.00    +0.110 C 
ENDROOT
BRANCH   1   2
ATOM      2  CG  ASN A   1      13.682   2.202   8.057  0.00  0.00    +0.221 C 
ATOM      3  OD1 ASN A   1      13.800   1.099   8.565  0.00  0.00    -0.275 OA
ATOM      4  ND2 ASN A   1      14.488   3.218   8.344  0.00  0.00    -0.329 N 
ATOM      5 HD21 ASN A   1      15.261   3.092   9.029  0.00  0.00    +0.145 HD
ATOM      6 HD22 ASN A   1      14.347   4.140   7.884  0.00  0.00    +0.145 HD
ENDBRANCH   1   2
BRANCH   1   7
ATOM      7  CA  ASN A   1      11.847   1.213   6.626  0.00  0.00    +0.142 C 
BRANCH   7   8
ATOM      8  N   ASN A   1      12.715   0.331   5.867  0.00  0.00    -0.239 NA
ATOM      9  H   ASN A   1      13.264   0.706   5.068  0.00  0.00    +0.142 HD
ENDBRANCH   7   8
BRANCH   7  10
ATOM     10  C   ASN A   1      10.677   1.643   5.772  0.00  0.00    +0.225 C 
ATOM     11  O   ASN A   1      10.856   2.044   4.623  0.00  0.00    -0.287 OA
ENDBRANCH   7  10
ENDBRANCH   1   7
TORSDOF 4
REMARK  Name = ../refined-set-2016/3r17/3r17_pocket.pdb
REMARK  158 active torsions:
REMARK  status: ('A' for Active; 'I' for Inactive)
REMARK    1  A    between atoms: _1  and  _3
REMARK    2  A    between atoms: _3  and  _4
REMARK    3  A    between atoms: _3  and  _6
REMARK    4  A    between atoms: _6  and  _7
REMARK    5  A    between atoms: _17  and  _19
REMARK    6  A    between atoms: _19  and  _20
REMARK    7  A    between atoms: _19  and  _22
REMARK    8  A    between atoms: _22  and  _23
REMARK    9  A    between atoms: _28  and  _29
REMARK   10  A    between atoms: _31  and  _33
REMARK   11  A    between atoms: _33  and  _34
REMARK   12  A    between atoms: _33  and  _36
REMARK   13  A    between atoms: _36  and  _37
REMARK   14  A    between atoms: _43  and  _45
REMARK   15  A    between atoms: _45  and  _46
REMARK   16  A    between atoms: _45  and  _48
REMARK   17  A    between atoms: _48  and  _49
REMARK   18  A    between atoms: _52  and  _53
REMARK   19  A    between atoms: _58  and  _60
REMARK   20  A    between atoms: _60  and  _61
REMARK   21  A    between atoms: _60  and  _63
REMARK   22  A    between atoms: _63  and  _64
REMARK   23  A    between atoms: _69  and  _71
REMARK   24  A    between atoms: _71  and  _72
REMARK   25  A    between atoms: _71  and  _74
REMARK   26  A    between atoms: _74  and  _75
REMARK   27  A    between atoms: _80  and  _82
REMARK   28  A    between atoms: _82  and  _83
REMARK   29  A    between atoms: _86  and  _88
REMARK   30  A    between atoms: _88  and  _89
REMARK   31  A    between atoms: _88  and  _91
REMARK   32  A    between atoms: _91  and  _92
REMARK   33  A    between atoms: _97  and  _99
REMARK   34  A    between atoms: _99  and  _100
REMARK   35  A    between atoms: _99  and  _102
REMARK   36  A    between atoms: _102  and  _103
REMARK   37  A    between atoms: _106  and  _108
REMARK   38  A    between atoms: _108  and  _109
REMARK   39  A    between atoms: _108  and  _111
REMARK   40  A    between atoms: _111  and  _112
REMARK   41  A    between atoms: _112  and  _113
REMARK   42  A    between atoms: _118  and  _120
REMARK   43  A    between atoms: _120  and  _121
REMARK   44  A    between atoms: _120  and  _123
REMARK   45  A    between atoms: _123  and  _124
REMARK   46  A    between atoms: _130  and  _132
REMARK   47  A    between atoms: _143  and  _146
REMARK   48  A    between atoms: _146  and  _147
REMARK   49  A    between atoms: _155  and  _156
REMARK   50  A    between atoms: _164  and  _166
REMARK   51  A    between atoms: _166  and  _167
REMARK   52  A    between atoms: _166  and  _169
REMARK   53  A    between atoms: _169  and  _170
REMARK   54  A    between atoms: _170  and  _171
REMARK   55  A    between atoms: _174  and  _176
REMARK   56  A    between atoms: _176  and  _177
REMARK   57  A    between atoms: _176  and  _179
REMARK   58  A    between atoms: _179  and  _180
REMARK   59  A    between atoms: _185  and  _187
REMARK   60  A    between atoms: _187  and  _188
REMARK   61  A    between atoms: _187  and  _190
REMARK   62  A    between atoms: _190  and  _191
REMARK   63  A    between atoms: _191  and  _192
REMARK   64  A    between atoms: _195  and  _197
REMARK   65  A    between atoms: _197  and  _198
REMARK   66  A    between atoms: _197  and  _200
REMARK   67  A    between atoms: _200  and  _201
REMARK   68  A    between atoms: _204  and  _206
REMARK   69  A    between atoms: _206  and  _207
REMARK   70  A    between atoms: _206  and  _209
REMARK   71  A    between atoms: _209  and  _210
REMARK   72  A    between atoms: _211  and  ZN_443
REMARK   73  A    between atoms: _215  and  _217
REMARK   74  A    between atoms: _217  and  _218
REMARK   75  A    between atoms: _217  and  _220
REMARK   76  A    between atoms: _220  and  _221
REMARK   77  A    between atoms: _224  and  _226
REMARK   78  A    between atoms: _226  and  _227
REMARK   79  A    between atoms: _226  and  _229
REMARK   80  A    between atoms: _232  and  _234
REMARK   81  A    between atoms: _234  and  _235
REMARK   82  A    between atoms: _234  and  _237
REMARK   83  A    between atoms: _237  and  _238
REMARK   84  A    between atoms: _243  and  _245
REMARK   85  A    between atoms: _245  and  _246
REMARK   86  A    between atoms: _245  and  _248
REMARK   87  A    between atoms: _248  and  _249
REMARK   88  A    between atoms: _255  and  _257
REMARK   89  A    between atoms: _257  and  _258
REMARK   90  A    between atoms: _260  and  _262
REMARK   91  A    between atoms: _262  and  _263
REMARK   92  A    between atoms: _262  and  _265
REMARK   93  A    between atoms: _268  and  _270
REMARK   94  A    between atoms: _270  and  _271
REMARK   95  A    between atoms: _270  and  _273
REMARK   96  A    between atoms: _273  and  _274
REMARK   97  A    between atoms: _274  and  _275
REMARK   98  A    between atoms: _280  and  _282
REMARK   99  A    between atoms: _282  and  _283
REMARK  100  A    between atoms: _282  and  _285
REMARK  101  A    between atoms: _285  and  _286
REMARK  102  A    between atoms: _289  and  _291
REMARK  103  A    between atoms: _291  and  _292
REMARK  104  A    between atoms: _295  and  _297
REMARK  105  A    between atoms: _297  and  _298
REMARK  106  A    between atoms: _297  and  _300
REMARK  107  A    between atoms: _303  and  _305
REMARK  108  A    between atoms: _305  and  _306
REMARK  109  A    between atoms: _305  and  _308
REMARK  110  A    between atoms: _308  and  _309
REMARK  111  A    between atoms: _312  and  _314
REMARK  112  A    between atoms: _314  and  _315
REMARK  113  A    between atoms: _317  and  _319
REMARK  114  A    between atoms: _319  and  _320
REMARK  115  A    between atoms: _319  and  _322
REMARK  116  A    between atoms: _322  and  _323
REMARK  117  A    between atoms: _325  and  _327
REMARK  118  A    between atoms: _327  and  _328
REMARK  119  A    between atoms: _327  and  _330
REMARK  120  A    between atoms: _330  and  _331
REMARK  121  A    between atoms: _334  and  _336
REMARK  122  A    between atoms: _336  and  _337
REMARK  123  A    between atoms: _336  and  _339
REMARK  124  A    between atoms: _339  and  _340
REMARK  125  A    between atoms: _343  and  _345
REMARK  126  A    between atoms: _345  and  _346
REMARK  127  A    between atoms: _345  and  _348
REMARK  128  A    between atoms: _348  and  _349
REMARK  129  A    between atoms: _353  and  _354
REMARK  130  A    between atoms: _360  and  _361
REMARK  131  A    between atoms: _366  and  _368
REMARK  132  A    between atoms: _368  and  _369
REMARK  133  A    between atoms: _368  and  _371
REMARK  134  A    between atoms: _371  and  _372
REMARK  135  A    between atoms: _375  and  _377
REMARK  136  A    between atoms: _377  and  _378
REMARK  137  A    between atoms: _377  and  _380
REMARK  138  A    between atoms: _380  and  _381
REMARK  139  A    between atoms: _384  and  _386
REMARK  140  A    between atoms: _386  and  _387
REMARK  141  A    between atoms: _386  and  _389
REMARK  142  A    between atoms: _391  and  _393
REMARK  143  A    between atoms: _393  and  _394
REMARK  144  A    between atoms: _393  and  _396
REMARK  145  A    between atoms: _399  and  _401
REMARK  146  A    between atoms: _401  and  _402
REMARK  147  A    between atoms: _401  and  _404
REMARK  148  A    between atoms: _404  and  _405
REMARK  149  A    between atoms: _415  and  _417
REMARK  150  A    between atoms: _417  and  _418
REMARK  151  A    between atoms: _417  and  _420
REMARK  152  A    between atoms: _420  and  _421
REMARK  153  A    between atoms: _426  and  _428
REMARK  154  A    between atoms: _428  and  _429
REMARK  155  A    between atoms: _428  and  _431
REMARK  156  A    between atoms: _431  and  _432
REMARK  157  A    between atoms: _432  and  _433
REMARK  158  A    between atoms: _433  and  _434
REMARK                            x       y       z     vdW  Elec       q    Type
REMARK                         _______ _______ _______ _____ _____    ______ ____
ROOT
ATOM      1  C   UNK A   4      10.820  -1.658  10.259  0.00  0.00    +0.000 C 
ATOM      2  C   UNK A   4      10.779  -2.933  11.083  0.00  0.00    +0.000 C 
ATOM      3  O   UNK A   4      10.143  -2.980  12.146  0.00  0.00    +0.000 OA
ATOM      4  N   VAL A   5      11.468  -3.956  10.594  0.00  0.00    +0.000 N 
ATOM      5  CA  VAL A   5      11.522  -5.239  11.277  0.00  0.00    +0.000 C 
ATOM      6  C   VAL A   5      12.960  -5.696  11.475  0.00  0.00    +0.000 C 
ATOM      7  N   UNK A   6      13.143  -6.623  12.408  0.00  0.00    +0.000 N 
ATOM      8  H   UNK A   6      12.386  -6.791  13.101  0.00  0.00    +0.000 HD
ATOM      9  C   UNK A   6      14.366  -7.416  12.499  0.00  0.00    +0.000 C 
ATOM     10  C   UNK A   6      15.058  -7.181  13.834  0.00  0.00    +0.000 C 
ATOM     11  C   UNK A   6      15.334  -5.739  14.111  0.00  0.00    +0.000 A 
ATOM     12  C   UNK A   6      14.518  -4.747  14.536  0.00  0.00    +0.000 A 
ATOM     13  N   UNK A   6      15.274  -3.603  14.599  0.00  0.00    +0.000 N 
ATOM     14 ZN   UNK A   6      14.477  -1.821  15.245  0.00  0.00    +0.000 Zn
ATOM     15  N   UNK A   4      13.697  -0.848  13.598  0.00  0.00    +0.000 N 
ATOM     16  C   UNK A   4      13.167   0.350  13.422  0.00  0.00    +0.000 A 
ATOM     17  N   UNK A   4      12.608   0.384  12.225  0.00  0.00    +0.000 NA
ATOM     18  C   UNK A   4      12.790  -0.830  11.599  0.00  0.00    +0.000 A 
ATOM     19  C   UNK A   4      13.475  -1.606  12.473  0.00  0.00    +0.000 A 
ATOM     20  C   UNK A   6      16.514  -3.883  14.236  0.00  0.00    +0.000 A 
ATOM     21  N   UNK A   6      16.574  -5.165  13.913  0.00  0.00    +0.000 NA
ATOM     22  O   VAL A   5      13.875  -5.234  10.790  0.00  0.00    +0.000 OA
ATOM     23  H   VAL A   5      11.983  -3.837   9.698  0.00  0.00    +0.000 HD
ATOM     24  C   UNK A   4      12.252  -1.121  10.238  0.00  0.00    +0.000 C 
ENDROOT
BRANCH  14  25
ATOM     25  N   UNK A   6      13.002  -2.543  16.472  0.00  0.00    +0.000 N 
ATOM     26  C   UNK A   6      13.348  -3.449  17.367  0.00  0.00    +0.000 A 
ATOM     27  N   UNK A   6      12.259  -3.839  18.006  0.00  0.00    +0.000 NA
ATOM     28  C   UNK A   6      11.176  -3.165  17.498  0.00  0.00    +0.000 A 
ATOM     29  C   UNK A   6      11.638  -2.344  16.526  0.00  0.00    +0.000 A 
BRANCH  29  30
ATOM     30  C   UNK A   6      10.919  -1.384  15.635  0.00  0.00    +0.000 C 
BRANCH  30  31
ATOM     31  C   UNK A   6       9.420  -1.671  15.539  0.00  0.00    +0.000 C 
BRANCH  31  32
ATOM     32  C   UNK A   6       8.725  -0.507  14.892  0.00  0.00    +0.000 C 
ATOM     33  N   UNK A   4       7.726   0.033  15.590  0.00  0.00    +0.000 N 
ATOM     34  H   UNK A   4       7.396  -0.439  16.456  0.00  0.00    +0.000 HD
ATOM     35  O   UNK A   6       9.075  -0.117  13.774  0.00  0.00    +0.000 OA
BRANCH  33  36
ATOM     36  C   UNK A   4       7.082   1.280  15.160  0.00  0.00    +0.000 C 
BRANCH  36  37
ATOM     37  C   UNK A   4       7.688   2.443  15.933  0.00  0.00    +0.000 C 
ATOM     38  O   UNK A   4       7.517   2.553  17.153  0.00  0.00    +0.000 OA
ATOM     39  N   VAL A   5       8.407   3.294  15.206  0.00  0.00    +0.000 N 
ATOM     40  H   VAL A   5       8.373   3.226  14.169  0.00  0.00    +0.000 HD
BRANCH  39  41
ATOM     41  CA  VAL A   5       9.244   4.322  15.822  0.00  0.00    +0.000 C 
BRANCH  41  42
ATOM     42  C   VAL A   5       8.526   5.660  15.865  0.00  0.00    +0.000 C 
ATOM     43  N   UNK A   6       8.429   6.246  17.063  0.00  0.00    +0.000 N 
ATOM     44  H   UNK A   6       8.847   5.765  17.885  0.00  0.00    +0.000 HD
ATOM     45  O   VAL A   5       8.100   6.157  14.828  0.00  0.00    +0.000 OA
BRANCH  43  46
ATOM     46  C   UNK A   6       7.761   7.535  17.271  0.00  0.00    +0.000 C 
BRANCH  46  47
ATOM     47  C   UNK A   6       8.692   8.501  18.001  0.00  0.00    +0.000 C 
ATOM     48  O   UNK A   6       9.487   8.083  18.837  0.00  0.00    +0.000 OA
ENDBRANCH  46  47
BRANCH  46  49
ATOM     49  C   UNK A   6       6.510   7.355  18.141  0.00  0.00    +0.000 C 
BRANCH  49  50
ATOM     50  C   UNK A   6       5.614   6.237  17.709  0.00  0.00    +0.000 A 
ATOM     51  N   UNK A   6       5.918   4.911  17.933  0.00  0.00    +0.000 NA
ATOM     52  C   UNK A   6       4.942   4.152  17.462  0.00  0.00    +0.000 A 
ATOM     53  N   UNK A   6       4.011   4.939  16.949  0.00  0.00    +0.000 NA
ATOM     54  C   UNK A   6       4.408   6.249  17.092  0.00  0.00    +0.000 A 
ENDBRANCH  49  50
ENDBRANCH  46  49
ENDBRANCH  43  46
ENDBRANCH  41  42
BRANCH  41  55
ATOM     55  CB  VAL A   5      10.558   4.486  15.029  0.00  0.00    +0.000 C 
ATOM     56  CG2 VAL A   5      11.483   5.477  15.729  0.00  0.00    +0.000 C 
ATOM     57  CG1 VAL A   5      11.241   3.127  14.843  0.00  0.00    +0.000 C 
ENDBRANCH  41  55
ENDBRANCH  39  41
ENDBRANCH  36  37
BRANCH  36  58
ATOM     58  C   UNK A   4       5.569   1.217  15.349  0.00  0.00    +0.000 C 
BRANCH  58  59
ATOM     59  C   UNK A   4       4.885   0.166  14.471  0.00  0.00    +0.000 C 
ATOM     60  C   UNK A   4       4.135  -0.825  15.347  0.00  0.00    +0.000 C 
ATOM     61  C   UNK A   4       3.950   0.826  13.465  0.00  0.00    +0.000 C 
ENDBRANCH  58  59
ENDBRANCH  36  58
ENDBRANCH  33  36
ENDBRANCH  31  32
BRANCH  31  62
ATOM     62  N   UNK A   6       9.190  -2.881  14.768  0.00  0.00    +0.000 N 
ATOM     63  C   LEU A   2       8.575  -3.934  15.288  0.00  0.00    +0.000 C 
ATOM     64  O   LEU A   2       8.201  -3.980  16.465  0.00  0.00    +0.000 OA
ATOM     65  H   UNK A   6       9.517  -2.922  13.782  0.00  0.00    +0.000 HD
BRANCH  63  66
ATOM     66  CA  LEU A   2       8.334  -5.109  14.343  0.00  0.00    +0.000 C 
BRANCH  66  67
ATOM     67  N   LEU A   2       8.722  -6.357  14.996  0.00  0.00    +0.000 N 
ATOM     68  H   LEU A   2       8.028  -6.827  15.612  0.00  0.00    +0.000 HD
ATOM     69  C   GLU A   1       9.911  -6.922  14.845  0.00  0.00    +0.000 C 
ATOM     70  O   GLU A   1      10.785  -6.489  14.099  0.00  0.00    +0.000 OA
BRANCH  69  71
ATOM     71  CA  GLU A   1      10.144  -8.187  15.652  0.00  0.00    +0.000 C 
BRANCH  71  72
ATOM     72  N   GLU A   1      10.649  -9.213  14.750  0.00  0.00    +0.000 NA
ATOM     73  H   GLU A   1      11.276  -8.936  13.968  0.00  0.00    +0.000 HD
ENDBRANCH  71  72
BRANCH  71  74
ATOM     74  CB  GLU A   1      11.141  -7.921  16.783  0.00  0.00    +0.000 C 
BRANCH  74  75
ATOM     75  CG  GLU A   1      10.602  -7.007  17.906  0.00  0.00    +0.000 C 
BRANCH  75  76
ATOM     76  CD  GLU A   1      11.551  -6.929  19.096  0.00  0.00    +0.000 C 
ATOM     77  OE2 GLU A   1      11.614  -5.857  19.734  0.00  0.00    +0.000 OA
ATOM     78  OE1 GLU A   1      12.212  -7.944  19.401  0.00  0.00    +0.000 OA
ENDBRANCH  75  76
ENDBRANCH  74  75
ENDBRANCH  71  74
ENDBRANCH  69  71
ENDBRANCH  66  67
BRANCH  66  79
ATOM     79  CB  LEU A   2       6.856  -5.188  13.947  0.00  0.00    +0.000 C 
BRANCH  79  80
ATOM     80  CG  LEU A   2       6.076  -3.905  13.611  0.00  0.00    +0.000 C 
ATOM     81  CD2 LEU A   2       4.611  -4.234  13.389  0.00  0.00    +0.000 C 
ATOM     82  CD1 LEU A   2       6.658  -3.273  12.376  0.00  0.00    +0.000 C 
ENDBRANCH  79  80
ENDBRANCH  66  79
ENDBRANCH  63  66
ENDBRANCH  31  62
ENDBRANCH  30  31
ENDBRANCH  29  30
ENDBRANCH  14  25
BRANCH   1  84
ATOM     83  C   UNK A   3       9.368   0.292  10.232  0.00  0.00    +0.000 C 
ATOM     84  N   UNK A   4       9.934  -0.708  10.901  0.00  0.00    +0.000 N 
ATOM     85  H   UNK A   4       9.735  -0.812  11.916  0.00  0.00    +0.000 HD
ATOM     86  O   UNK A   3       9.591   0.509   9.042  0.00  0.00    +0.000 OA
BRANCH  83  87
ATOM     87  C   UNK A   3       8.443   1.189  11.043  0.00  0.00    +0.000 C 
BRANCH  87  90
ATOM     88  C   LEU A   2       8.545   3.604  11.152  0.00  0.00    +0.000 C 
ATOM     89  O   LEU A   2       8.529   3.613  12.383  0.00  0.00    +0.000 OA
ATOM     90  N   UNK A   3       8.314   2.510  10.431  0.00  0.00    +0.000 N 
ATOM     91  H   UNK A   3       8.041   2.595   9.431  0.00  0.00    +0.000 HD
BRANCH  88  92
ATOM     92  CA  LEU A   2       8.771   4.887  10.381  0.00  0.00    +0.000 C 
BRANCH  92  94
ATOM     93  C   GLU A   1       8.371   7.244  10.716  0.00  0.00    +0.000 C 
ATOM     94  N   LEU A   2       8.511   6.034  11.243  0.00  0.00    +0.000 N 
ATOM     95  H   LEU A   2       8.435   5.904  12.272  0.00  0.00    +0.000 HD
ATOM     96  O   GLU A   1       8.456   7.444   9.506  0.00  0.00    +0.000 OA
BRANCH  93  97
ATOM     97  CA  GLU A   1       8.085   8.391  11.685  0.00  0.00    +0.000 C 
BRANCH  97  98
ATOM     98  CB  GLU A   1       9.394   9.062  12.184  0.00  0.00    +0.000 C 
ATOM     99  CG2 GLU A   1      10.122   8.185  13.211  0.00  0.00    +0.000 C 
BRANCH  98 100
ATOM    100  CG1 GLU A   1      10.302   9.389  10.994  0.00  0.00    +0.000 C 
ATOM    101  CD1 GLU A   1      11.485  10.278  11.364  0.00  0.00    +0.000 C 
ENDBRANCH  98 100
ENDBRANCH  97  98
BRANCH  97 102
ATOM    102  N   GLU A   1       7.197   8.011  12.783  0.00  0.00    +0.000 NA
ATOM    103  H   GLU A   1       7.551   7.383  13.533  0.00  0.00    +0.000 HD
ENDBRANCH  97 102
ENDBRANCH  93  97
ENDBRANCH  92  94
BRANCH  92 104
ATOM    104  CB  LEU A   2      10.214   4.923   9.853  0.00  0.00    +0.000 C 
BRANCH 104 105
ATOM    105  CG  LEU A   2      11.278   5.101  10.947  0.00  0.00    +0.000 C 
BRANCH 105 106
ATOM    106  CD  LEU A   2      12.071   3.843  11.237  0.00  0.00    +0.000 C 
ATOM    107  NE2 LEU A   2      13.316   4.018  11.674  0.00  0.00    +0.000 N 
ATOM    108 HE21 LEU A   2      13.915   3.194  11.882  0.00  0.00    +0.000 HD
ATOM    109 HE22 LEU A   2      13.690   4.979  11.807  0.00  0.00    +0.000 HD
ATOM    110  OE1 LEU A   2      11.581   2.729  11.063  0.00  0.00    +0.000 OA
ENDBRANCH 105 106
ENDBRANCH 104 105
ENDBRANCH  92 104
ENDBRANCH  88  92
ENDBRANCH  87  90
BRANCH  87 111
ATOM    111  C   UNK A   3       7.082   0.518  11.302  0.00  0.00    +0.000 C 
BRANCH 111 112
ATOM    112  C   UNK A   3       6.363   0.069  10.058  0.00  0.00    +0.000 A 
ATOM    113  C   UNK A   3       5.251   0.773   9.599  0.00  0.00    +0.000 A 
ATOM    114  C   UNK A   3       4.566   0.354   8.478  0.00  0.00    +0.000 A 
ATOM    115  C   UNK A   3       4.981  -0.787   7.796  0.00  0.00    +0.000 A 
ATOM    116  C   UNK A   3       6.079  -1.512   8.249  0.00  0.00    +0.000 A 
ATOM    117  C   UNK A   3       6.757  -1.084   9.378  0.00  0.00    +0.000 A 
ENDBRANCH 111 112
ENDBRANCH  87 111
ENDBRANCH  83  87
ENDBRANCH   1  84
BRANCH   9 118
ATOM    118  C   UNK A   6      13.935  -8.868  12.391  0.00  0.00    +0.000 C 
ATOM    119  O   UNK A   6      12.876  -9.230  12.907  0.00  0.00    +0.000 OA
ENDBRANCH   9 118
BRANCH   5 120
ATOM    120  CB  VAL A   5      10.830  -6.318  10.434  0.00  0.00    +0.000 C 
BRANCH 120 121
ATOM    121  CG  VAL A   5       9.394  -6.030  10.095  0.00  0.00    +0.000 A 
ATOM    122  CD2 VAL A   5       8.369  -6.641  10.808  0.00  0.00    +0.000 A 
ATOM    123  CE2 VAL A   5       7.046  -6.411  10.486  0.00  0.00    +0.000 A 
ATOM    124  CZ  VAL A   5       6.733  -5.566   9.428  0.00  0.00    +0.000 A 
ATOM    125  CE1 VAL A   5       7.740  -4.954   8.709  0.00  0.00    +0.000 A 
ATOM    126  CD1 VAL A   5       9.064  -5.191   9.035  0.00  0.00    +0.000 A 
ENDBRANCH 120 121
ENDBRANCH   5 120
TORSDOF 42
REMARK  Name = ../refined-set-2016/3r17/3r17_pocket.pdb
REMARK  158 active torsions:
REMARK  status: ('A' for Active; 'I' for Inactive)
REMARK    1  A    between atoms: _1  and  _3
REMARK    2  A    between atoms: _3  and  _4
REMARK    3  A    between atoms: _3  and  _6
REMARK    4  A    between atoms: _6  and  _7
REMARK    5  A    between atoms: _17  and  _19
REMARK    6  A    between atoms: _19  and  _20
REMARK    7  A    between atoms: _19  and  _22
REMARK    8  A    between atoms: _22  and  _23
REMARK    9  A    between atoms: _28  and  _29
REMARK   10  A    between atoms: _31  and  _33
REMARK   11  A    between atoms: _33  and  _34
REMARK   12  A    between atoms: _33  and  _36
REMARK   13  A    between atoms: _36  and  _37
REMARK   14  A    between atoms: _43  and  _45
REMARK   15  A    between atoms: _45  and  _46
REMARK   16  A    between atoms: _45  and  _48
REMARK   17  A    between atoms: _48  and  _49
REMARK   18  A    between atoms: _52  and  _53
REMARK   19  A    between atoms: _58  and  _60
REMARK   20  A    between atoms: _60  and  _61
REMARK   21  A    between atoms: _60  and  _63
REMARK   22  A    between atoms: _63  and  _64
REMARK   23  A    between atoms: _69  and  _71
REMARK   24  A    between atoms: _71  and  _72
REMARK   25  A    between atoms: _71  and  _74
REMARK   26  A    between atoms: _74  and  _75
REMARK   27  A    between atoms: _80  and  _82
REMARK   28  A    between atoms: _82  and  _83
REMARK   29  A    between atoms: _86  and  _88
REMARK   30  A    between atoms: _88  and  _89
REMARK   31  A    between atoms: _88  and  _91
REMARK   32  A    between atoms: _91  and  _92
REMARK   33  A    between atoms: _97  and  _99
REMARK   34  A    between atoms: _99  and  _100
REMARK   35  A    between atoms: _99  and  _102
REMARK   36  A    between atoms: _102  and  _103
REMARK   37  A    between atoms: _106  and  _108
REMARK   38  A    between atoms: _108  and  _109
REMARK   39  A    between atoms: _108  and  _111
REMARK   40  A    between atoms: _111  and  _112
REMARK   41  A    between atoms: _112  and  _113
REMARK   42  A    between atoms: _118  and  _120
REMARK   43  A    between atoms: _120  and  _121
REMARK   44  A    between atoms: _120  and  _123
REMARK   45  A    between atoms: _123  and  _124
REMARK   46  A    between atoms: _130  and  _132
REMARK   47  A    between atoms: _143  and  _146
REMARK   48  A    between atoms: _146  and  _147
REMARK   49  A    between atoms: _155  and  _156
REMARK   50  A    between atoms: _164  and  _166
REMARK   51  A    between atoms: _166  and  _167
REMARK   52  A    between atoms: _166  and  _169
REMARK   53  A    between atoms: _169  and  _170
REMARK   54  A    between atoms: _170  and  _171
REMARK   55  A    between atoms: _174  and  _176
REMARK   56  A    between atoms: _176  and  _177
REMARK   57  A    between atoms: _176  and  _179
REMARK   58  A    between atoms: _179  and  _180
REMARK   59  A    between atoms: _185  and  _187
REMARK   60  A    between atoms: _187  and  _188
REMARK   61  A    between atoms: _187  and  _190
REMARK   62  A    between atoms: _190  and  _191
REMARK   63  A    between atoms: _191  and  _192
REMARK   64  A    between atoms: _195  and  _197
REMARK   65  A    between atoms: _197  and  _198
REMARK   66  A    between atoms: _197  and  _200
REMARK   67  A    between atoms: _200  and  _201
REMARK   68  A    between atoms: _204  and  _206
REMARK   69  A    between atoms: _206  and  _207
REMARK   70  A    between atoms: _206  and  _209
REMARK   71  A    between atoms: _209  and  _210
REMARK   72  A    between atoms: _211  and  ZN_443
REMARK   73  A    between atoms: _215  and  _217
REMARK   74  A    between atoms: _217  and  _218
REMARK   75  A    between atoms: _217  and  _220
REMARK   76  A    between atoms: _220  and  _221
REMARK   77  A    between atoms: _224  and  _226
REMARK   78  A    between atoms: _226  and  _227
REMARK   79  A    between atoms: _226  and  _229
REMARK   80  A    between atoms: _232  and  _234
REMARK   81  A    between atoms: _234  and  _235
REMARK   82  A    between atoms: _234  and  _237
REMARK   83  A    between atoms: _237  and  _238
REMARK   84  A    between atoms: _243  and  _245
REMARK   85  A    between atoms: _245  and  _246
REMARK   86  A    between atoms: _245  and  _248
REMARK   87  A    between atoms: _248  and  _249
REMARK   88  A    between atoms: _255  and  _257
REMARK   89  A    between atoms: _257  and  _258
REMARK   90  A    between atoms: _260  and  _262
REMARK   91  A    between atoms: _262  and  _263
REMARK   92  A    between atoms: _262  and  _265
REMARK   93  A    between atoms: _268  and  _270
REMARK   94  A    between atoms: _270  and  _271
REMARK   95  A    between atoms: _270  and  _273
REMARK   96  A    between atoms: _273  and  _274
REMARK   97  A    between atoms: _274  and  _275
REMARK   98  A    between atoms: _280  and  _282
REMARK   99  A    between atoms: _282  and  _283
REMARK  100  A    between atoms: _282  and  _285
REMARK  101  A    between atoms: _285  and  _286
REMARK  102  A    between atoms: _289  and  _291
REMARK  103  A    between atoms: _291  and  _292
REMARK  104  A    between atoms: _295  and  _297
REMARK  105  A    between atoms: _297  and  _298
REMARK  106  A    between atoms: _297  and  _300
REMARK  107  A    between atoms: _303  and  _305
REMARK  108  A    between atoms: _305  and  _306
REMARK  109  A    between atoms: _305  and  _308
REMARK  110  A    between atoms: _308  and  _309
REMARK  111  A    between atoms: _312  and  _314
REMARK  112  A    between atoms: _314  and  _315
REMARK  113  A    between atoms: _317  and  _319
REMARK  114  A    between atoms: _319  and  _320
REMARK  115  A    between atoms: _319  and  _322
REMARK  116  A    between atoms: _322  and  _323
REMARK  117  A    between atoms: _325  and  _327
REMARK  118  A    between atoms: _327  and  _328
REMARK  119  A    between atoms: _327  and  _330
REMARK  120  A    between atoms: _330  and  _331
REMARK  121  A    between atoms: _334  and  _336
REMARK  122  A    between atoms: _336  and  _337
REMARK  123  A    between atoms: _336  and  _339
REMARK  124  A    between atoms: _339  and  _340
REMARK  125  A    between atoms: _343  and  _345
REMARK  126  A    between atoms: _345  and  _346
REMARK  127  A    between atoms: _345  and  _348
REMARK  128  A    between atoms: _348  and  _349
REMARK  129  A    between atoms: _353  and  _354
REMARK  130  A    between atoms: _360  and  _361
REMARK  131  A    between atoms: _366  and  _368
REMARK  132  A    between atoms: _368  and  _369
REMARK  133  A    between atoms: _368  and  _371
REMARK  134  A    between atoms: _371  and  _372
REMARK  135  A    between atoms: _375  and  _377
REMARK  136  A    between atoms: _377  and  _378
REMARK  137  A    between atoms: _377  and  _380
REMARK  138  A    between atoms: _380  and  _381
REMARK  139  A    between atoms: _384  and  _386
REMARK  140  A    between atoms: _386  and  _387
REMARK  141  A    between atoms: _386  and  _389
REMARK  142  A    between atoms: _391  and  _393
REMARK  143  A    between atoms: _393  and  _394
REMARK  144  A    between atoms: _393  and  _396
REMARK  145  A    between atoms: _399  and  _401
REMARK  146  A    between atoms: _401  and  _402
REMARK  147  A    between atoms: _401  and  _404
REMARK  148  A    between atoms: _404  and  _405
REMARK  149  A    between atoms: _415  and  _417
REMARK  150  A    between atoms: _417  and  _418
REMARK  151  A    between atoms: _417  and  _420
REMARK  152  A    between atoms: _420  and  _421
REMARK  153  A    between atoms: _426  and  _428
REMARK  154  A    between atoms: _428  and  _429
REMARK  155  A    between atoms: _428  and  _431
REMARK  156  A    between atoms: _431  and  _432
REMARK  157  A    between atoms: _432  and  _433
REMARK  158  A    between atoms: _433  and  _434
REMARK                            x       y       z     vdW  Elec       q    Type
REMARK                         _______ _______ _______ _____ _____    ______ ____
ROOT
ATOM      1  C   GLU A   1      15.341  -8.715  20.950  0.00  0.00    +0.238 C 
ATOM      2  O   GLU A   1      16.143  -9.267  21.697  0.00  0.00    -0.274 OA
ATOM      3  N   HIS A   2      14.168  -8.272  21.382  0.00  0.00    -0.298 N 
ATOM      4  H   HIS A   2      13.579  -7.662  20.780  0.00  0.00    +0.150 HD
ENDROOT
BRANCH   1   5
ATOM      5  CA  GLU A   1      15.654  -8.546  19.462  0.00  0.00    +0.145 C 
BRANCH   5   6
ATOM      6  N   GLU A   1      14.645  -9.229  18.670  0.00  0.00    -0.238 NA
ATOM      7  H   GLU A   1      13.768  -8.723  18.433  0.00  0.00    +0.142 HD
ENDBRANCH   5   6
BRANCH   5   8
ATOM      8  CB  GLU A   1      15.710  -7.082  19.047  0.00  0.00    +0.038 C 
BRANCH   8   9
ATOM      9  CG  GLU A   1      16.109  -6.928  17.578  0.00  0.00    +0.116 C 
BRANCH   9  10
ATOM     10  CD  GLU A   1      16.835  -5.639  17.299  0.00  0.00    +0.365 C 
ATOM     11  OE2 GLU A   1      16.230  -4.570  17.486  0.00  0.00    -0.246 OA
ATOM     12  OE1 GLU A   1      18.020  -5.696  16.899  0.00  0.00    -0.246 OA
ENDBRANCH   9  10
ENDBRANCH   8   9
ENDBRANCH   5   8
ENDBRANCH   1   5
BRANCH   3  13
ATOM     13  CA  HIS A   2      13.719  -8.654  22.712  0.00  0.00    +0.143 C 
BRANCH  13  14
ATOM     14  C   HIS A   2      13.427 -10.142  22.746  0.00  0.00    +0.227 C 
ATOM     15  O   HIS A   2      13.098 -10.743  21.722  0.00  0.00    -0.286 OA
ENDBRANCH  13  14
BRANCH  13  16
ATOM     16  CB  HIS A   2      12.491  -7.844  23.123  0.00  0.00    +0.075 C 
BRANCH  16  17
ATOM     17  CG  HIS A   2      12.790  -6.390  23.283  0.00  0.00    +0.082 A 
ATOM     18  CD2 HIS A   2      13.232  -5.689  24.350  0.00  0.00    +0.115 A 
ATOM     19  NE2 HIS A   2      13.410  -4.392  23.939  0.00  0.00    -0.221 NA
ATOM     20  CE1 HIS A   2      13.095  -4.301  22.659  0.00  0.00    +0.199 A 
ATOM     21  ND1 HIS A   2      12.725  -5.497  22.234  0.00  0.00    -0.227 NA
ENDBRANCH  16  17
ENDBRANCH  13  16
ENDBRANCH   3  13
TORSDOF 9
REMARK  Name = ../refined-set-2016/3r17/3r17_pocket.pdb
REMARK  158 active torsions:
REMARK  status: ('A' for Active; 'I' for Inactive)
REMARK    1  A    between atoms: _1  and  _3
REMARK    2  A    between atoms: _3  and  _4
REMARK    3  A    between atoms: _3  and  _6
REMARK    4  A    between atoms: _6  and  _7
REMARK    5  A    between atoms: _17  and  _19
REMARK    6  A    between atoms: _19  and  _20
REMARK    7  A    between atoms: _19  and  _22
REMARK    8  A    between atoms: _22  and  _23
REMARK    9  A    between atoms: _28  and  _29
REMARK   10  A    between atoms: _31  and  _33
REMARK   11  A    between atoms: _33  and  _34
REMARK   12  A    between atoms: _33  and  _36
REMARK   13  A    between atoms: _36  and  _37
REMARK   14  A    between atoms: _43  and  _45
REMARK   15  A    between atoms: _45  and  _46
REMARK   16  A    between atoms: _45  and  _48
REMARK   17  A    between atoms: _48  and  _49
REMARK   18  A    between atoms: _52  and  _53
REMARK   19  A    between atoms: _58  and  _60
REMARK   20  A    between atoms: _60  and  _61
REMARK   21  A    between atoms: _60  and  _63
REMARK   22  A    between atoms: _63  and  _64
REMARK   23  A    between atoms: _69  and  _71
REMARK   24  A    between atoms: _71  and  _72
REMARK   25  A    between atoms: _71  and  _74
REMARK   26  A    between atoms: _74  and  _75
REMARK   27  A    between atoms: _80  and  _82
REMARK   28  A    between atoms: _82  and  _83
REMARK   29  A    between atoms: _86  and  _88
REMARK   30  A    between atoms: _88  and  _89
REMARK   31  A    between atoms: _88  and  _91
REMARK   32  A    between atoms: _91  and  _92
REMARK   33  A    between atoms: _97  and  _99
REMARK   34  A    between atoms: _99  and  _100
REMARK   35  A    between atoms: _99  and  _102
REMARK   36  A    between atoms: _102  and  _103
REMARK   37  A    between atoms: _106  and  _108
REMARK   38  A    between atoms: _108  and  _109
REMARK   39  A    between atoms: _108  and  _111
REMARK   40  A    between atoms: _111  and  _112
REMARK   41  A    between atoms: _112  and  _113
REMARK   42  A    between atoms: _118  and  _120
REMARK   43  A    between atoms: _120  and  _121
REMARK   44  A    between atoms: _120  and  _123
REMARK   45  A    between atoms: _123  and  _124
REMARK   46  A    between atoms: _130  and  _132
REMARK   47  A    between atoms: _143  and  _146
REMARK   48  A    between atoms: _146  and  _147
REMARK   49  A    between atoms: _155  and  _156
REMARK   50  A    between atoms: _164  and  _166
REMARK   51  A    between atoms: _166  and  _167
REMARK   52  A    between atoms: _166  and  _169
REMARK   53  A    between atoms: _169  and  _170
REMARK   54  A    between atoms: _170  and  _171
REMARK   55  A    between atoms: _174  and  _176
REMARK   56  A    between atoms: _176  and  _177
REMARK   57  A    between atoms: _176  and  _179
REMARK   58  A    between atoms: _179  and  _180
REMARK   59  A    between atoms: _185  and  _187
REMARK   60  A    between atoms: _187  and  _188
REMARK   61  A    between atoms: _187  and  _190
REMARK   62  A    between atoms: _190  and  _191
REMARK   63  A    between atoms: _191  and  _192
REMARK   64  A    between atoms: _195  and  _197
REMARK   65  A    between atoms: _197  and  _198
REMARK   66  A    between atoms: _197  and  _200
REMARK   67  A    between atoms: _200  and  _201
REMARK   68  A    between atoms: _204  and  _206
REMARK   69  A    between atoms: _206  and  _207
REMARK   70  A    between atoms: _206  and  _209
REMARK   71  A    between atoms: _209  and  _210
REMARK   72  A    between atoms: _211  and  ZN_443
REMARK   73  A    between atoms: _215  and  _217
REMARK   74  A    between atoms: _217  and  _218
REMARK   75  A    between atoms: _217  and  _220
REMARK   76  A    between atoms: _220  and  _221
REMARK   77  A    between atoms: _224  and  _226
REMARK   78  A    between atoms: _226  and  _227
REMARK   79  A    between atoms: _226  and  _229
REMARK   80  A    between atoms: _232  and  _234
REMARK   81  A    between atoms: _234  and  _235
REMARK   82  A    between atoms: _234  and  _237
REMARK   83  A    between atoms: _237  and  _238
REMARK   84  A    between atoms: _243  and  _245
REMARK   85  A    between atoms: _245  and  _246
REMARK   86  A    between atoms: _245  and  _248
REMARK   87  A    between atoms: _248  and  _249
REMARK   88  A    between atoms: _255  and  _257
REMARK   89  A    between atoms: _257  and  _258
REMARK   90  A    between atoms: _260  and  _262
REMARK   91  A    between atoms: _262  and  _263
REMARK   92  A    between atoms: _262  and  _265
REMARK   93  A    between atoms: _268  and  _270
REMARK   94  A    between atoms: _270  and  _271
REMARK   95  A    between atoms: _270  and  _273
REMARK   96  A    between atoms: _273  and  _274
REMARK   97  A    between atoms: _274  and  _275
REMARK   98  A    between atoms: _280  and  _282
REMARK   99  A    between atoms: _282  and  _283
REMARK  100  A    between atoms: _282  and  _285
REMARK  101  A    between atoms: _285  and  _286
REMARK  102  A    between atoms: _289  and  _291
REMARK  103  A    between atoms: _291  and  _292
REMARK  104  A    between atoms: _295  and  _297
REMARK  105  A    between atoms: _297  and  _298
REMARK  106  A    between atoms: _297  and  _300
REMARK  107  A    between atoms: _303  and  _305
REMARK  108  A    between atoms: _305  and  _306
REMARK  109  A    between atoms: _305  and  _308
REMARK  110  A    between atoms: _308  and  _309
REMARK  111  A    between atoms: _312  and  _314
REMARK  112  A    between atoms: _314  and  _315
REMARK  113  A    between atoms: _317  and  _319
REMARK  114  A    between atoms: _319  and  _320
REMARK  115  A    between atoms: _319  and  _322
REMARK  116  A    between atoms: _322  and  _323
REMARK  117  A    between atoms: _325  and  _327
REMARK  118  A    between atoms: _327  and  _328
REMARK  119  A    between atoms: _327  and  _330
REMARK  120  A    between atoms: _330  and  _331
REMARK  121  A    between atoms: _334  and  _336
REMARK  122  A    between atoms: _336  and  _337
REMARK  123  A    between atoms: _336  and  _339
REMARK  124  A    between atoms: _339  and  _340
REMARK  125  A    between atoms: _343  and  _345
REMARK  126  A    between atoms: _345  and  _346
REMARK  127  A    between atoms: _345  and  _348
REMARK  128  A    between atoms: _348  and  _349
REMARK  129  A    between atoms: _353  and  _354
REMARK  130  A    between atoms: _360  and  _361
REMARK  131  A    between atoms: _366  and  _368
REMARK  132  A    between atoms: _368  and  _369
REMARK  133  A    between atoms: _368  and  _371
REMARK  134  A    between atoms: _371  and  _372
REMARK  135  A    between atoms: _375  and  _377
REMARK  136  A    between atoms: _377  and  _378
REMARK  137  A    between atoms: _377  and  _380
REMARK  138  A    between atoms: _380  and  _381
REMARK  139  A    between atoms: _384  and  _386
REMARK  140  A    between atoms: _386  and  _387
REMARK  141  A    between atoms: _386  and  _389
REMARK  142  A    between atoms: _391  and  _393
REMARK  143  A    between atoms: _393  and  _394
REMARK  144  A    between atoms: _393  and  _396
REMARK  145  A    between atoms: _399  and  _401
REMARK  146  A    between atoms: _401  and  _402
REMARK  147  A    between atoms: _401  and  _404
REMARK  148  A    between atoms: _404  and  _405
REMARK  149  A    between atoms: _415  and  _417
REMARK  150  A    between atoms: _417  and  _418
REMARK  151  A    between atoms: _417  and  _420
REMARK  152  A    between atoms: _420  and  _421
REMARK  153  A    between atoms: _426  and  _428
REMARK  154  A    between atoms: _428  and  _429
REMARK  155  A    between atoms: _428  and  _431
REMARK  156  A    between atoms: _431  and  _432
REMARK  157  A    between atoms: _432  and  _433
REMARK  158  A    between atoms: _433  and  _434
REMARK                            x       y       z     vdW  Elec       q    Type
REMARK                         _______ _______ _______ _____ _____    ______ ____
ROOT
ATOM      1  CA  PHE A   1      13.545  13.334  15.119  0.00  0.00    +0.149 C 
ENDROOT
BRANCH   1   2
ATOM      2  C   PHE A   1      15.003  13.485  15.526  0.00  0.00    +0.239 C 
ATOM      3  O   PHE A   1      15.440  12.880  16.503  0.00  0.00    -0.274 OA
ATOM      4  N   GLY A   2      15.756  14.280  14.768  0.00  0.00    -0.297 N 
ATOM      5  H   GLY A   2      15.328  14.768  13.955  0.00  0.00    +0.150 HD
BRANCH   4   6
ATOM      6  CA  GLY A   2      17.166  14.476  15.059  0.00  0.00    +0.163 C 
BRANCH   6   7
ATOM      7  C   GLY A   2      17.425  15.063  16.437  0.00  0.00    +0.229 C 
ATOM      8  O   GLY A   2      18.410  14.716  17.091  0.00  0.00    -0.286 OA
ENDBRANCH   6   7
ENDBRANCH   4   6
ENDBRANCH   1   2
BRANCH   1   9
ATOM      9  N   PHE A   1      12.961  14.607  14.724  0.00  0.00    -0.238 NA
ATOM     10  H   PHE A   1      12.604  14.719  13.754  0.00  0.00    +0.142 HD
ENDBRANCH   1   9
BRANCH   1  11
ATOM     11  CB  PHE A   1      13.405  12.323  13.975  0.00  0.00    +0.053 C 
BRANCH  11  12
ATOM     12  CG  PHE A   1      14.033  10.995  14.259  0.00  0.00    -0.020 A 
ATOM     13  CD2 PHE A   1      13.332  10.012  14.945  0.00  0.00    -0.004 A 
ATOM     14  CE2 PHE A   1      13.909   8.784  15.200  0.00  0.00    -0.000 A 
ATOM     15  CZ  PHE A   1      15.196   8.529  14.776  0.00  0.00    -0.000 A 
ATOM     16  CE1 PHE A   1      15.900   9.502  14.091  0.00  0.00    -0.000 A 
ATOM     17  CD1 PHE A   1      15.320  10.719  13.836  0.00  0.00    -0.004 A 
ENDBRANCH  11  12
ENDBRANCH   1  11
TORSDOF 6
REMARK  Name = ../refined-set-2016/3r17/3r17_pocket.pdb
REMARK  158 active torsions:
REMARK  status: ('A' for Active; 'I' for Inactive)
REMARK    1  A    between atoms: _1  and  _3
REMARK    2  A    between atoms: _3  and  _4
REMARK    3  A    between atoms: _3  and  _6
REMARK    4  A    between atoms: _6  and  _7
REMARK    5  A    between atoms: _17  and  _19
REMARK    6  A    between atoms: _19  and  _20
REMARK    7  A    between atoms: _19  and  _22
REMARK    8  A    between atoms: _22  and  _23
REMARK    9  A    between atoms: _28  and  _29
REMARK   10  A    between atoms: _31  and  _33
REMARK   11  A    between atoms: _33  and  _34
REMARK   12  A    between atoms: _33  and  _36
REMARK   13  A    between atoms: _36  and  _37
REMARK   14  A    between atoms: _43  and  _45
REMARK   15  A    between atoms: _45  and  _46
REMARK   16  A    between atoms: _45  and  _48
REMARK   17  A    between atoms: _48  and  _49
REMARK   18  A    between atoms: _52  and  _53
REMARK   19  A    between atoms: _58  and  _60
REMARK   20  A    between atoms: _60  and  _61
REMARK   21  A    between atoms: _60  and  _63
REMARK   22  A    between atoms: _63  and  _64
REMARK   23  A    between atoms: _69  and  _71
REMARK   24  A    between atoms: _71  and  _72
REMARK   25  A    between atoms: _71  and  _74
REMARK   26  A    between atoms: _74  and  _75
REMARK   27  A    between atoms: _80  and  _82
REMARK   28  A    between atoms: _82  and  _83
REMARK   29  A    between atoms: _86  and  _88
REMARK   30  A    between atoms: _88  and  _89
REMARK   31  A    between atoms: _88  and  _91
REMARK   32  A    between atoms: _91  and  _92
REMARK   33  A    between atoms: _97  and  _99
REMARK   34  A    between atoms: _99  and  _100
REMARK   35  A    between atoms: _99  and  _102
REMARK   36  A    between atoms: _102  and  _103
REMARK   37  A    between atoms: _106  and  _108
REMARK   38  A    between atoms: _108  and  _109
REMARK   39  A    between atoms: _108  and  _111
REMARK   40  A    between atoms: _111  and  _112
REMARK   41  A    between atoms: _112  and  _113
REMARK   42  A    between atoms: _118  and  _120
REMARK   43  A    between atoms: _120  and  _121
REMARK   44  A    between atoms: _120  and  _123
REMARK   45  A    between atoms: _123  and  _124
REMARK   46  A    between atoms: _130  and  _132
REMARK   47  A    between atoms: _143  and  _146
REMARK   48  A    between atoms: _146  and  _147
REMARK   49  A    between atoms: _155  and  _156
REMARK   50  A    between atoms: _164  and  _166
REMARK   51  A    between atoms: _166  and  _167
REMARK   52  A    between atoms: _166  and  _169
REMARK   53  A    between atoms: _169  and  _170
REMARK   54  A    between atoms: _170  and  _171
REMARK   55  A    between atoms: _174  and  _176
REMARK   56  A    between atoms: _176  and  _177
REMARK   57  A    between atoms: _176  and  _179
REMARK   58  A    between atoms: _179  and  _180
REMARK   59  A    between atoms: _185  and  _187
REMARK   60  A    between atoms: _187  and  _188
REMARK   61  A    between atoms: _187  and  _190
REMARK   62  A    between atoms: _190  and  _191
REMARK   63  A    between atoms: _191  and  _192
REMARK   64  A    between atoms: _195  and  _197
REMARK   65  A    between atoms: _197  and  _198
REMARK   66  A    between atoms: _197  and  _200
REMARK   67  A    between atoms: _200  and  _201
REMARK   68  A    between atoms: _204  and  _206
REMARK   69  A    between atoms: _206  and  _207
REMARK   70  A    between atoms: _206  and  _209
REMARK   71  A    between atoms: _209  and  _210
REMARK   72  A    between atoms: _211  and  ZN_443
REMARK   73  A    between atoms: _215  and  _217
REMARK   74  A    between atoms: _217  and  _218
REMARK   75  A    between atoms: _217  and  _220
REMARK   76  A    between atoms: _220  and  _221
REMARK   77  A    between atoms: _224  and  _226
REMARK   78  A    between atoms: _226  and  _227
REMARK   79  A    between atoms: _226  and  _229
REMARK   80  A    between atoms: _232  and  _234
REMARK   81  A    between atoms: _234  and  _235
REMARK   82  A    between atoms: _234  and  _237
REMARK   83  A    between atoms: _237  and  _238
REMARK   84  A    between atoms: _243  and  _245
REMARK   85  A    between atoms: _245  and  _246
REMARK   86  A    between atoms: _245  and  _248
REMARK   87  A    between atoms: _248  and  _249
REMARK   88  A    between atoms: _255  and  _257
REMARK   89  A    between atoms: _257  and  _258
REMARK   90  A    between atoms: _260  and  _262
REMARK   91  A    between atoms: _262  and  _263
REMARK   92  A    between atoms: _262  and  _265
REMARK   93  A    between atoms: _268  and  _270
REMARK   94  A    between atoms: _270  and  _271
REMARK   95  A    between atoms: _270  and  _273
REMARK   96  A    between atoms: _273  and  _274
REMARK   97  A    between atoms: _274  and  _275
REMARK   98  A    between atoms: _280  and  _282
REMARK   99  A    between atoms: _282  and  _283
REMARK  100  A    between atoms: _282  and  _285
REMARK  101  A    between atoms: _285  and  _286
REMARK  102  A    between atoms: _289  and  _291
REMARK  103  A    between atoms: _291  and  _292
REMARK  104  A    between atoms: _295  and  _297
REMARK  105  A    between atoms: _297  and  _298
REMARK  106  A    between atoms: _297  and  _300
REMARK  107  A    between atoms: _303  and  _305
REMARK  108  A    between atoms: _305  and  _306
REMARK  109  A    between atoms: _305  and  _308
REMARK  110  A    between atoms: _308  and  _309
REMARK  111  A    between atoms: _312  and  _314
REMARK  112  A    between atoms: _314  and  _315
REMARK  113  A    between atoms: _317  and  _319
REMARK  114  A    between atoms: _319  and  _320
REMARK  115  A    between atoms: _319  and  _322
REMARK  116  A    between atoms: _322  and  _323
REMARK  117  A    between atoms: _325  and  _327
REMARK  118  A    between atoms: _327  and  _328
REMARK  119  A    between atoms: _327  and  _330
REMARK  120  A    between atoms: _330  and  _331
REMARK  121  A    between atoms: _334  and  _336
REMARK  122  A    between atoms: _336  and  _337
REMARK  123  A    between atoms: _336  and  _339
REMARK  124  A    between atoms: _339  and  _340
REMARK  125  A    between atoms: _343  and  _345
REMARK  126  A    between atoms: _345  and  _346
REMARK  127  A    between atoms: _345  and  _348
REMARK  128  A    between atoms: _348  and  _349
REMARK  129  A    between atoms: _353  and  _354
REMARK  130  A    between atoms: _360  and  _361
REMARK  131  A    between atoms: _366  and  _368
REMARK  132  A    between atoms: _368  and  _369
REMARK  133  A    between atoms: _368  and  _371
REMARK  134  A    between atoms: _371  and  _372
REMARK  135  A    between atoms: _375  and  _377
REMARK  136  A    between atoms: _377  and  _378
REMARK  137  A    between atoms: _377  and  _380
REMARK  138  A    between atoms: _380  and  _381
REMARK  139  A    between atoms: _384  and  _386
REMARK  140  A    between atoms: _386  and  _387
REMARK  141  A    between atoms: _386  and  _389
REMARK  142  A    between atoms: _391  and  _393
REMARK  143  A    between atoms: _393  and  _394
REMARK  144  A    between atoms: _393  and  _396
REMARK  145  A    between atoms: _399  and  _401
REMARK  146  A    between atoms: _401  and  _402
REMARK  147  A    between atoms: _401  and  _404
REMARK  148  A    between atoms: _404  and  _405
REMARK  149  A    between atoms: _415  and  _417
REMARK  150  A    between atoms: _417  and  _418
REMARK  151  A    between atoms: _417  and  _420
REMARK  152  A    between atoms: _420  and  _421
REMARK  153  A    between atoms: _426  and  _428
REMARK  154  A    between atoms: _428  and  _429
REMARK  155  A    between atoms: _428  and  _431
REMARK  156  A    between atoms: _431  and  _432
REMARK  157  A    between atoms: _432  and  _433
REMARK  158  A    between atoms: _433  and  _434
REMARK                            x       y       z     vdW  Elec       q    Type
REMARK                         _______ _______ _______ _____ _____    ______ ____
ROOT
ATOM      1  C   VAL A   1      18.360  11.564  20.677  0.00  0.00    +0.238 C 
ATOM      2  O   VAL A   1      19.079  10.723  21.216  0.00  0.00    -0.274 OA
ATOM      3  N   GLN A   2      18.491  12.869  20.887  0.00  0.00    -0.298 N 
ATOM      4  H   GLN A   2      17.887  13.529  20.356  0.00  0.00    +0.150 HD
ENDROOT
BRANCH   1   5
ATOM      5  CA  VAL A   1      17.249  11.140  19.707  0.00  0.00    +0.145 C 
BRANCH   5   6
ATOM      6  CB  VAL A   1      17.878  10.457  18.456  0.00  0.00    +0.025 C 
ATOM      7  CG2 VAL A   1      18.761  11.427  17.686  0.00  0.00    +0.002 C 
ATOM      8  CG1 VAL A   1      16.783   9.862  17.563  0.00  0.00    +0.002 C 
ENDBRANCH   5   6
BRANCH   5   9
ATOM      9  N   VAL A   1      16.359  12.258  19.365  0.00  0.00    -0.238 NA
ATOM     10  H   VAL A   1      16.350  12.644  18.400  0.00  0.00    +0.142 HD
ENDBRANCH   5   9
ENDBRANCH   1   5
BRANCH   3  11
ATOM     11  CA  GLN A   2      19.460  13.405  21.843  0.00  0.00    +0.137 C 
BRANCH  11  12
ATOM     12  C   GLN A   2      18.871  13.570  23.254  0.00  0.00    +0.227 C 
ATOM     13  O   GLN A   2      19.534  14.094  24.150  0.00  0.00    -0.286 OA
ENDBRANCH  11  12
BRANCH  11  14
ATOM     14  CB  GLN A   2      19.989  14.747  21.336  0.00  0.00    +0.037 C 
BRANCH  14  15
ATOM     15  CG  GLN A   2      20.541  14.678  19.921  0.00  0.00    +0.087 C 
BRANCH  15  16
ATOM     16  CD  GLN A   2      20.968  16.031  19.390  0.00  0.00    +0.219 C 
ATOM     17  NE2 GLN A   2      21.716  16.777  20.197  0.00  0.00    -0.329 N 
ATOM     18 HE21 GLN A   2      21.972  16.425  21.142  0.00  0.00    +0.145 HD
ATOM     19 HE22 GLN A   2      22.045  17.712  19.884  0.00  0.00    +0.145 HD
ATOM     20  OE1 GLN A   2      20.636  16.400  18.261  0.00  0.00    -0.275 OA
ENDBRANCH  15  16
ENDBRANCH  14  15
ENDBRANCH  11  14
ENDBRANCH   3  11
TORSDOF 8
REMARK  Name = ../refined-set-2016/3r17/3r17_pocket.pdb
REMARK  158 active torsions:
REMARK  status: ('A' for Active; 'I' for Inactive)
REMARK    1  A    between atoms: _1  and  _3
REMARK    2  A    between atoms: _3  and  _4
REMARK    3  A    between atoms: _3  and  _6
REMARK    4  A    between atoms: _6  and  _7
REMARK    5  A    between atoms: _17  and  _19
REMARK    6  A    between atoms: _19  and  _20
REMARK    7  A    between atoms: _19  and  _22
REMARK    8  A    between atoms: _22  and  _23
REMARK    9  A    between atoms: _28  and  _29
REMARK   10  A    between atoms: _31  and  _33
REMARK   11  A    between atoms: _33  and  _34
REMARK   12  A    between atoms: _33  and  _36
REMARK   13  A    between atoms: _36  and  _37
REMARK   14  A    between atoms: _43  and  _45
REMARK   15  A    between atoms: _45  and  _46
REMARK   16  A    between atoms: _45  and  _48
REMARK   17  A    between atoms: _48  and  _49
REMARK   18  A    between atoms: _52  and  _53
REMARK   19  A    between atoms: _58  and  _60
REMARK   20  A    between atoms: _60  and  _61
REMARK   21  A    between atoms: _60  and  _63
REMARK   22  A    between atoms: _63  and  _64
REMARK   23  A    between atoms: _69  and  _71
REMARK   24  A    between atoms: _71  and  _72
REMARK   25  A    between atoms: _71  and  _74
REMARK   26  A    between atoms: _74  and  _75
REMARK   27  A    between atoms: _80  and  _82
REMARK   28  A    between atoms: _82  and  _83
REMARK   29  A    between atoms: _86  and  _88
REMARK   30  A    between atoms: _88  and  _89
REMARK   31  A    between atoms: _88  and  _91
REMARK   32  A    between atoms: _91  and  _92
REMARK   33  A    between atoms: _97  and  _99
REMARK   34  A    between atoms: _99  and  _100
REMARK   35  A    between atoms: _99  and  _102
REMARK   36  A    between atoms: _102  and  _103
REMARK   37  A    between atoms: _106  and  _108
REMARK   38  A    between atoms: _108  and  _109
REMARK   39  A    between atoms: _108  and  _111
REMARK   40  A    between atoms: _111  and  _112
REMARK   41  A    between atoms: _112  and  _113
REMARK   42  A    between atoms: _118  and  _120
REMARK   43  A    between atoms: _120  and  _121
REMARK   44  A    between atoms: _120  and  _123
REMARK   45  A    between atoms: _123  and  _124
REMARK   46  A    between atoms: _130  and  _132
REMARK   47  A    between atoms: _143  and  _146
REMARK   48  A    between atoms: _146  and  _147
REMARK   49  A    between atoms: _155  and  _156
REMARK   50  A    between atoms: _164  and  _166
REMARK   51  A    between atoms: _166  and  _167
REMARK   52  A    between atoms: _166  and  _169
REMARK   53  A    between atoms: _169  and  _170
REMARK   54  A    between atoms: _170  and  _171
REMARK   55  A    between atoms: _174  and  _176
REMARK   56  A    between atoms: _176  and  _177
REMARK   57  A    between atoms: _176  and  _179
REMARK   58  A    between atoms: _179  and  _180
REMARK   59  A    between atoms: _185  and  _187
REMARK   60  A    between atoms: _187  and  _188
REMARK   61  A    between atoms: _187  and  _190
REMARK   62  A    between atoms: _190  and  _191
REMARK   63  A    between atoms: _191  and  _192
REMARK   64  A    between atoms: _195  and  _197
REMARK   65  A    between atoms: _197  and  _198
REMARK   66  A    between atoms: _197  and  _200
REMARK   67  A    between atoms: _200  and  _201
REMARK   68  A    between atoms: _204  and  _206
REMARK   69  A    between atoms: _206  and  _207
REMARK   70  A    between atoms: _206  and  _209
REMARK   71  A    between atoms: _209  and  _210
REMARK   72  A    between atoms: _211  and  ZN_443
REMARK   73  A    between atoms: _215  and  _217
REMARK   74  A    between atoms: _217  and  _218
REMARK   75  A    between atoms: _217  and  _220
REMARK   76  A    between atoms: _220  and  _221
REMARK   77  A    between atoms: _224  and  _226
REMARK   78  A    between atoms: _226  and  _227
REMARK   79  A    between atoms: _226  and  _229
REMARK   80  A    between atoms: _232  and  _234
REMARK   81  A    between atoms: _234  and  _235
REMARK   82  A    between atoms: _234  and  _237
REMARK   83  A    between atoms: _237  and  _238
REMARK   84  A    between atoms: _243  and  _245
REMARK   85  A    between atoms: _245  and  _246
REMARK   86  A    between atoms: _245  and  _248
REMARK   87  A    between atoms: _248  and  _249
REMARK   88  A    between atoms: _255  and  _257
REMARK   89  A    between atoms: _257  and  _258
REMARK   90  A    between atoms: _260  and  _262
REMARK   91  A    between atoms: _262  and  _263
REMARK   92  A    between atoms: _262  and  _265
REMARK   93  A    between atoms: _268  and  _270
REMARK   94  A    between atoms: _270  and  _271
REMARK   95  A    between atoms: _270  and  _273
REMARK   96  A    between atoms: _273  and  _274
REMARK   97  A    between atoms: _274  and  _275
REMARK   98  A    between atoms: _280  and  _282
REMARK   99  A    between atoms: _282  and  _283
REMARK  100  A    between atoms: _282  and  _285
REMARK  101  A    between atoms: _285  and  _286
REMARK  102  A    between atoms: _289  and  _291
REMARK  103  A    between atoms: _291  and  _292
REMARK  104  A    between atoms: _295  and  _297
REMARK  105  A    between atoms: _297  and  _298
REMARK  106  A    between atoms: _297  and  _300
REMARK  107  A    between atoms: _303  and  _305
REMARK  108  A    between atoms: _305  and  _306
REMARK  109  A    between atoms: _305  and  _308
REMARK  110  A    between atoms: _308  and  _309
REMARK  111  A    between atoms: _312  and  _314
REMARK  112  A    between atoms: _314  and  _315
REMARK  113  A    between atoms: _317  and  _319
REMARK  114  A    between atoms: _319  and  _320
REMARK  115  A    between atoms: _319  and  _322
REMARK  116  A    between atoms: _322  and  _323
REMARK  117  A    between atoms: _325  and  _327
REMARK  118  A    between atoms: _327  and  _328
REMARK  119  A    between atoms: _327  and  _330
REMARK  120  A    between atoms: _330  and  _331
REMARK  121  A    between atoms: _334  and  _336
REMARK  122  A    between atoms: _336  and  _337
REMARK  123  A    between atoms: _336  and  _339
REMARK  124  A    between atoms: _339  and  _340
REMARK  125  A    between atoms: _343  and  _345
REMARK  126  A    between atoms: _345  and  _346
REMARK  127  A    between atoms: _345  and  _348
REMARK  128  A    between atoms: _348  and  _349
REMARK  129  A    between atoms: _353  and  _354
REMARK  130  A    between atoms: _360  and  _361
REMARK  131  A    between atoms: _366  and  _368
REMARK  132  A    between atoms: _368  and  _369
REMARK  133  A    between atoms: _368  and  _371
REMARK  134  A    between atoms: _371  and  _372
REMARK  135  A    between atoms: _375  and  _377
REMARK  136  A    between atoms: _377  and  _378
REMARK  137  A    between atoms: _377  and  _380
REMARK  138  A    between atoms: _380  and  _381
REMARK  139  A    between atoms: _384  and  _386
REMARK  140  A    between atoms: _386  and  _387
REMARK  141  A    between atoms: _386  and  _389
REMARK  142  A    between atoms: _391  and  _393
REMARK  143  A    between atoms: _393  and  _394
REMARK  144  A    between atoms: _393  and  _396
REMARK  145  A    between atoms: _399  and  _401
REMARK  146  A    between atoms: _401  and  _402
REMARK  147  A    between atoms: _401  and  _404
REMARK  148  A    between atoms: _404  and  _405
REMARK  149  A    between atoms: _415  and  _417
REMARK  150  A    between atoms: _417  and  _418
REMARK  151  A    between atoms: _417  and  _420
REMARK  152  A    between atoms: _420  and  _421
REMARK  153  A    between atoms: _426  and  _428
REMARK  154  A    between atoms: _428  and  _429
REMARK  155  A    between atoms: _428  and  _431
REMARK  156  A    between atoms: _431  and  _432
REMARK  157  A    between atoms: _432  and  _433
REMARK  158  A    between atoms: _433  and  _434
REMARK                            x       y       z     vdW  Elec       q    Type
REMARK                         _______ _______ _______ _____ _____    ______ ____
ROOT
ATOM      1  C   ALA A   2       8.841   4.726  20.820  0.00  0.00    +0.241 C 
ATOM      2  N   VAL A   3       9.355   3.525  21.063  0.00  0.00    -0.297 N 
ATOM      3  H   VAL A   3       9.815   3.333  21.976  0.00  0.00    +0.150 HD
ATOM      4  O   ALA A   2       8.385   5.049  19.719  0.00  0.00    -0.273 OA
ENDROOT
BRANCH   1   5
ATOM      5  CA  ALA A   2       8.898   5.731  21.955  0.00  0.00    +0.149 C 
ATOM      6  CB  ALA A   2       7.499   6.163  22.367  0.00  0.00    +0.031 C 
BRANCH   5   9
ATOM      7  C   LEU A   1      10.705   7.355  22.107  0.00  0.00    +0.238 C 
ATOM      8  O   LEU A   1      10.953   7.081  23.278  0.00  0.00    -0.274 OA
ATOM      9  N   ALA A   2       9.667   6.854  21.448  0.00  0.00    -0.297 N 
ATOM     10  H   ALA A   2       9.396   7.280  20.539  0.00  0.00    +0.150 HD
BRANCH   7  11
ATOM     11  CA  LEU A   1      11.608   8.285  21.303  0.00  0.00    +0.145 C 
BRANCH  11  12
ATOM     12  N   LEU A   1      12.300   9.248  22.162  0.00  0.00    -0.238 NA
ATOM     13  H   LEU A   1      12.936   8.902  22.908  0.00  0.00    +0.142 HD
ENDBRANCH  11  12
BRANCH  11  14
ATOM     14  CB  LEU A   1      12.609   7.431  20.509  0.00  0.00    +0.026 C 
BRANCH  14  15
ATOM     15  CG  LEU A   1      13.547   8.055  19.468  0.00  0.00    +0.002 C 
ATOM     16  CD2 LEU A   1      12.886   9.157  18.665  0.00  0.00    +0.000 C 
ATOM     17  CD1 LEU A   1      14.109   6.972  18.536  0.00  0.00    +0.000 C 
ENDBRANCH  14  15
ENDBRANCH  11  14
ENDBRANCH   7  11
ENDBRANCH   5   9
ENDBRANCH   1   5
BRANCH   2  18
ATOM     18  CA  VAL A   3       9.277   2.474  20.053  0.00  0.00    +0.149 C 
BRANCH  18  19
ATOM     19  C   VAL A   3       8.307   1.394  20.525  0.00  0.00    +0.241 C 
ATOM     20  O   VAL A   3       8.440   0.845  21.622  0.00  0.00    -0.273 OA
ATOM     21  N   LEU A   4       7.302   1.134  19.698  0.00  0.00    -0.298 N 
ATOM     22  H   LEU A   4       7.201   1.705  18.835  0.00  0.00    +0.150 HD
BRANCH  21  23
ATOM     23  CA  LEU A   4       6.337   0.078  19.957  0.00  0.00    +0.137 C 
BRANCH  23  24
ATOM     24  C   LEU A   4       6.829  -1.201  19.280  0.00  0.00    +0.227 C 
ATOM     25  O   LEU A   4       6.940  -1.247  18.058  0.00  0.00    -0.286 OA
ENDBRANCH  23  24
BRANCH  23  26
ATOM     26  CB  LEU A   4       4.974   0.507  19.402  0.00  0.00    +0.028 C 
BRANCH  26  27
ATOM     27  CG  LEU A   4       3.791  -0.434  19.584  0.00  0.00    +0.002 C 
ATOM     28  CD2 LEU A   4       3.566  -0.701  21.072  0.00  0.00    +0.000 C 
ATOM     29  CD1 LEU A   4       2.546   0.193  18.936  0.00  0.00    +0.000 C 
ENDBRANCH  26  27
ENDBRANCH  23  26
ENDBRANCH  21  23
ENDBRANCH  18  19
BRANCH  18  30
ATOM     30  CB  VAL A   3      10.668   1.881  19.694  0.00  0.00    +0.027 C 
ATOM     31  CG2 VAL A   3      11.605   2.984  19.250  0.00  0.00    +0.002 C 
ATOM     32  CG1 VAL A   3      10.542   0.843  18.585  0.00  0.00    +0.002 C 
ENDBRANCH  18  30
ENDBRANCH   2  18
TORSDOF 13
REMARK  Name = ../refined-set-2016/3r17/3r17_pocket.pdb
REMARK  158 active torsions:
REMARK  status: ('A' for Active; 'I' for Inactive)
REMARK    1  A    between atoms: _1  and  _3
REMARK    2  A    between atoms: _3  and  _4
REMARK    3  A    between atoms: _3  and  _6
REMARK    4  A    between atoms: _6  and  _7
REMARK    5  A    between atoms: _17  and  _19
REMARK    6  A    between atoms: _19  and  _20
REMARK    7  A    between atoms: _19  and  _22
REMARK    8  A    between atoms: _22  and  _23
REMARK    9  A    between atoms: _28  and  _29
REMARK   10  A    between atoms: _31  and  _33
REMARK   11  A    between atoms: _33  and  _34
REMARK   12  A    between atoms: _33  and  _36
REMARK   13  A    between atoms: _36  and  _37
REMARK   14  A    between atoms: _43  and  _45
REMARK   15  A    between atoms: _45  and  _46
REMARK   16  A    between atoms: _45  and  _48
REMARK   17  A    between atoms: _48  and  _49
REMARK   18  A    between atoms: _52  and  _53
REMARK   19  A    between atoms: _58  and  _60
REMARK   20  A    between atoms: _60  and  _61
REMARK   21  A    between atoms: _60  and  _63
REMARK   22  A    between atoms: _63  and  _64
REMARK   23  A    between atoms: _69  and  _71
REMARK   24  A    between atoms: _71  and  _72
REMARK   25  A    between atoms: _71  and  _74
REMARK   26  A    between atoms: _74  and  _75
REMARK   27  A    between atoms: _80  and  _82
REMARK   28  A    between atoms: _82  and  _83
REMARK   29  A    between atoms: _86  and  _88
REMARK   30  A    between atoms: _88  and  _89
REMARK   31  A    between atoms: _88  and  _91
REMARK   32  A    between atoms: _91  and  _92
REMARK   33  A    between atoms: _97  and  _99
REMARK   34  A    between atoms: _99  and  _100
REMARK   35  A    between atoms: _99  and  _102
REMARK   36  A    between atoms: _102  and  _103
REMARK   37  A    between atoms: _106  and  _108
REMARK   38  A    between atoms: _108  and  _109
REMARK   39  A    between atoms: _108  and  _111
REMARK   40  A    between atoms: _111  and  _112
REMARK   41  A    between atoms: _112  and  _113
REMARK   42  A    between atoms: _118  and  _120
REMARK   43  A    between atoms: _120  and  _121
REMARK   44  A    between atoms: _120  and  _123
REMARK   45  A    between atoms: _123  and  _124
REMARK   46  A    between atoms: _130  and  _132
REMARK   47  A    between atoms: _143  and  _146
REMARK   48  A    between atoms: _146  and  _147
REMARK   49  A    between atoms: _155  and  _156
REMARK   50  A    between atoms: _164  and  _166
REMARK   51  A    between atoms: _166  and  _167
REMARK   52  A    between atoms: _166  and  _169
REMARK   53  A    between atoms: _169  and  _170
REMARK   54  A    between atoms: _170  and  _171
REMARK   55  A    between atoms: _174  and  _176
REMARK   56  A    between atoms: _176  and  _177
REMARK   57  A    between atoms: _176  and  _179
REMARK   58  A    between atoms: _179  and  _180
REMARK   59  A    between atoms: _185  and  _187
REMARK   60  A    between atoms: _187  and  _188
REMARK   61  A    between atoms: _187  and  _190
REMARK   62  A    between atoms: _190  and  _191
REMARK   63  A    between atoms: _191  and  _192
REMARK   64  A    between atoms: _195  and  _197
REMARK   65  A    between atoms: _197  and  _198
REMARK   66  A    between atoms: _197  and  _200
REMARK   67  A    between atoms: _200  and  _201
REMARK   68  A    between atoms: _204  and  _206
REMARK   69  A    between atoms: _206  and  _207
REMARK   70  A    between atoms: _206  and  _209
REMARK   71  A    between atoms: _209  and  _210
REMARK   72  A    between atoms: _211  and  ZN_443
REMARK   73  A    between atoms: _215  and  _217
REMARK   74  A    between atoms: _217  and  _218
REMARK   75  A    between atoms: _217  and  _220
REMARK   76  A    between atoms: _220  and  _221
REMARK   77  A    between atoms: _224  and  _226
REMARK   78  A    between atoms: _226  and  _227
REMARK   79  A    between atoms: _226  and  _229
REMARK   80  A    between atoms: _232  and  _234
REMARK   81  A    between atoms: _234  and  _235
REMARK   82  A    between atoms: _234  and  _237
REMARK   83  A    between atoms: _237  and  _238
REMARK   84  A    between atoms: _243  and  _245
REMARK   85  A    between atoms: _245  and  _246
REMARK   86  A    between atoms: _245  and  _248
REMARK   87  A    between atoms: _248  and  _249
REMARK   88  A    between atoms: _255  and  _257
REMARK   89  A    between atoms: _257  and  _258
REMARK   90  A    between atoms: _260  and  _262
REMARK   91  A    between atoms: _262  and  _263
REMARK   92  A    between atoms: _262  and  _265
REMARK   93  A    between atoms: _268  and  _270
REMARK   94  A    between atoms: _270  and  _271
REMARK   95  A    between atoms: _270  and  _273
REMARK   96  A    between atoms: _273  and  _274
REMARK   97  A    between atoms: _274  and  _275
REMARK   98  A    between atoms: _280  and  _282
REMARK   99  A    between atoms: _282  and  _283
REMARK  100  A    between atoms: _282  and  _285
REMARK  101  A    between atoms: _285  and  _286
REMARK  102  A    between atoms: _289  and  _291
REMARK  103  A    between atoms: _291  and  _292
REMARK  104  A    between atoms: _295  and  _297
REMARK  105  A    between atoms: _297  and  _298
REMARK  106  A    between atoms: _297  and  _300
REMARK  107  A    between atoms: _303  and  _305
REMARK  108  A    between atoms: _305  and  _306
REMARK  109  A    between atoms: _305  and  _308
REMARK  110  A    between atoms: _308  and  _309
REMARK  111  A    between atoms: _312  and  _314
REMARK  112  A    between atoms: _314  and  _315
REMARK  113  A    between atoms: _317  and  _319
REMARK  114  A    between atoms: _319  and  _320
REMARK  115  A    between atoms: _319  and  _322
REMARK  116  A    between atoms: _322  and  _323
REMARK  117  A    between atoms: _325  and  _327
REMARK  118  A    between atoms: _327  and  _328
REMARK  119  A    between atoms: _327  and  _330
REMARK  120  A    between atoms: _330  and  _331
REMARK  121  A    between atoms: _334  and  _336
REMARK  122  A    between atoms: _336  and  _337
REMARK  123  A    between atoms: _336  and  _339
REMARK  124  A    between atoms: _339  and  _340
REMARK  125  A    between atoms: _343  and  _345
REMARK  126  A    between atoms: _345  and  _346
REMARK  127  A    between atoms: _345  and  _348
REMARK  128  A    between atoms: _348  and  _349
REMARK  129  A    between atoms: _353  and  _354
REMARK  130  A    between atoms: _360  and  _361
REMARK  131  A    between atoms: _366  and  _368
REMARK  132  A    between atoms: _368  and  _369
REMARK  133  A    between atoms: _368  and  _371
REMARK  134  A    between atoms: _371  and  _372
REMARK  135  A    between atoms: _375  and  _377
REMARK  136  A    between atoms: _377  and  _378
REMARK  137  A    between atoms: _377  and  _380
REMARK  138  A    between atoms: _380  and  _381
REMARK  139  A    between atoms: _384  and  _386
REMARK  140  A    between atoms: _386  and  _387
REMARK  141  A    between atoms: _386  and  _389
REMARK  142  A    between atoms: _391  and  _393
REMARK  143  A    between atoms: _393  and  _394
REMARK  144  A    between atoms: _393  and  _396
REMARK  145  A    between atoms: _399  and  _401
REMARK  146  A    between atoms: _401  and  _402
REMARK  147  A    between atoms: _401  and  _404
REMARK  148  A    between atoms: _404  and  _405
REMARK  149  A    between atoms: _415  and  _417
REMARK  150  A    between atoms: _417  and  _418
REMARK  151  A    between atoms: _417  and  _420
REMARK  152  A    between atoms: _420  and  _421
REMARK  153  A    between atoms: _426  and  _428
REMARK  154  A    between atoms: _428  and  _429
REMARK  155  A    between atoms: _428  and  _431
REMARK  156  A    between atoms: _431  and  _432
REMARK  157  A    between atoms: _432  and  _433
REMARK  158  A    between atoms: _433  and  _434
REMARK                            x       y       z     vdW  Elec       q    Type
REMARK                         _______ _______ _______ _____ _____    ______ ____
ROOT
ATOM      1  CA  THR A   5      21.555  -0.278  16.205  0.00  0.00    +0.176 C 
ENDROOT
BRANCH   1   2
ATOM      2  C   THR A   5      22.377   0.962  16.504  0.00  0.00    +0.246 C 
ATOM      3  O   THR A   5      21.880   1.900  17.130  0.00  0.00    -0.273 OA
ATOM      4  N   PRO A   6      23.641   0.974  16.054  0.00  0.00    -0.272 N 
ATOM      5  CA  PRO A   6      24.403   2.222  16.128  0.00  0.00    +0.152 C 
ATOM      6  CB  PRO A   6      25.599   1.928  15.217  0.00  0.00    +0.031 C 
ATOM      7  CG  PRO A   6      25.842   0.470  15.428  0.00  0.00    +0.024 C 
ATOM      8  CD  PRO A   6      24.426  -0.107  15.432  0.00  0.00    +0.094 C 
BRANCH   5   9
ATOM      9  C   PRO A   6      23.527   3.340  15.565  0.00  0.00    +0.244 C 
ATOM     10  N   PRO A   7      23.564   4.535  16.172  0.00  0.00    -0.272 N 
ATOM     11  CA  PRO A   7      24.453   4.971  17.258  0.00  0.00    +0.152 C 
ATOM     12  CB  PRO A   7      24.424   6.502  17.126  0.00  0.00    +0.031 C 
ATOM     13  CG  PRO A   7      23.083   6.797  16.561  0.00  0.00    +0.024 C 
ATOM     14  CD  PRO A   7      22.746   5.653  15.645  0.00  0.00    +0.094 C 
ATOM     15  O   PRO A   6      22.817   3.110  14.578  0.00  0.00    -0.273 OA
BRANCH  11  16
ATOM     16  C   PRO A   7      24.062   4.546  18.691  0.00  0.00    +0.241 C 
ATOM     17  O   PRO A   7      24.682   5.040  19.637  0.00  0.00    -0.273 OA
ATOM     18  N   LEU A   8      23.070   3.665  18.846  0.00  0.00    -0.297 N 
ATOM     19  H   LEU A   8      22.502   3.394  18.018  0.00  0.00    +0.150 HD
BRANCH  18  20
ATOM     20  CA  LEU A   8      22.758   3.067  20.154  0.00  0.00    +0.149 C 
BRANCH  20  21
ATOM     21  C   LEU A   8      22.381   4.100  21.220  0.00  0.00    +0.241 C 
ATOM     22  O   LEU A   8      22.539   3.870  22.418  0.00  0.00    -0.273 OA
ATOM     23  N   LEU A   9      21.842   5.226  20.778  0.00  0.00    -0.298 N 
ATOM     24  H   LEU A   9      21.632   5.330  19.765  0.00  0.00    +0.150 HD
BRANCH  23  25
ATOM     25  CA  LEU A   9      21.538   6.325  21.694  0.00  0.00    +0.137 C 
BRANCH  25  26
ATOM     26  C   LEU A   9      20.488   5.929  22.734  0.00  0.00    +0.227 C 
ATOM     27  O   LEU A   9      19.520   5.230  22.431  0.00  0.00    -0.286 OA
ENDBRANCH  25  26
BRANCH  25  28
ATOM     28  CB  LEU A   9      21.069   7.557  20.907  0.00  0.00    +0.028 C 
BRANCH  28  29
ATOM     29  CG  LEU A   9      22.117   8.119  19.941  0.00  0.00    +0.002 C 
ATOM     30  CD2 LEU A   9      23.262   8.756  20.722  0.00  0.00    +0.000 C 
ATOM     31  CD1 LEU A   9      21.488   9.140  19.009  0.00  0.00    +0.000 C 
ENDBRANCH  28  29
ENDBRANCH  25  28
ENDBRANCH  23  25
ENDBRANCH  20  21
BRANCH  20  32
ATOM     32  CB  LEU A   8      23.925   2.196  20.644  0.00  0.00    +0.029 C 
BRANCH  32  33
ATOM     33  CG  LEU A   8      24.295   1.046  19.701  0.00  0.00    +0.002 C 
ATOM     34  CD2 LEU A   8      25.600   0.369  20.130  0.00  0.00    +0.000 C 
ATOM     35  CD1 LEU A   8      23.147   0.031  19.634  0.00  0.00    +0.000 C 
ENDBRANCH  32  33
ENDBRANCH  20  32
ENDBRANCH  18  20
ENDBRANCH  11  16
ENDBRANCH   5   9
ENDBRANCH   1   2
BRANCH   1  38
ATOM     36  C   THR A   4      20.224  -1.413  17.914  0.00  0.00    +0.243 C 
ATOM     37  O   THR A   4      20.792  -2.493  17.732  0.00  0.00    -0.273 OA
ATOM     38  N   THR A   5      20.442  -0.337  17.157  0.00  0.00    -0.295 N 
ATOM     39  H   THR A   5      19.806   0.481  17.244  0.00  0.00    +0.150 HD
BRANCH  36  40
ATOM     40  CA  THR A   4      19.187  -1.272  19.036  0.00  0.00    +0.176 C 
BRANCH  40  43
ATOM     41  C   LEU A   3      18.991   1.009  19.832  0.00  0.00    +0.241 C 
ATOM     42  O   LEU A   3      20.006   0.864  20.527  0.00  0.00    -0.273 OA
ATOM     43  N   THR A   4      18.514   0.029  19.064  0.00  0.00    -0.295 N 
ATOM     44  H   THR A   4      17.665   0.188  18.485  0.00  0.00    +0.150 HD
BRANCH  41  45
ATOM     45  CA  LEU A   3      18.253   2.342  19.811  0.00  0.00    +0.149 C 
BRANCH  45  48
ATOM     46  C   SER A   2      17.734   2.170  22.167  0.00  0.00    +0.243 C 
ATOM     47  O   SER A   2      16.963   1.237  21.985  0.00  0.00    -0.273 OA
ATOM     48  N   LEU A   3      18.270   2.867  21.168  0.00  0.00    -0.297 N 
ATOM     49  H   LEU A   3      18.704   3.793  21.358  0.00  0.00    +0.150 HD
BRANCH  46  50
ATOM     50  CA  SER A   2      18.148   2.574  23.571  0.00  0.00    +0.178 C 
BRANCH  50  53
ATOM     51  C   GLY A   1      16.926   2.574  25.670  0.00  0.00    +0.240 C 
ATOM     52  O   GLY A   1      17.037   3.794  25.801  0.00  0.00    -0.274 OA
ATOM     53  N   SER A   2      17.340   1.920  24.590  0.00  0.00    -0.295 N 
ATOM     54  H   SER A   2      17.081   0.920  24.470  0.00  0.00    +0.150 HD
BRANCH  51  55
ATOM     55  CA  GLY A   1      16.304   1.722  26.753  0.00  0.00    +0.169 C 
BRANCH  55  56
ATOM     56  N   GLY A   1      15.228   2.357  27.490  0.00  0.00    -0.236 NA
ATOM     57  H   GLY A   1      14.616   3.052  27.016  0.00  0.00    +0.142 HD
ENDBRANCH  55  56
ENDBRANCH  51  55
ENDBRANCH  50  53
BRANCH  50  58
ATOM     58  CB  SER A   2      19.616   2.165  23.757  0.00  0.00    +0.166 C 
BRANCH  58  59
ATOM     59  OG  SER A   2      19.810   0.813  23.334  0.00  0.00    -0.380 OA
ATOM     60  H   SER A   2      19.569   0.730  22.377  0.00  0.00    +0.211 HD
ENDBRANCH  58  59
ENDBRANCH  50  58
ENDBRANCH  46  50
ENDBRANCH  45  48
BRANCH  45  61
ATOM     61  CB  LEU A   3      18.961   3.306  18.859  0.00  0.00    +0.029 C 
BRANCH  61  62
ATOM     62  CG  LEU A   3      18.438   4.738  18.754  0.00  0.00    +0.002 C 
ATOM     63  CD2 LEU A   3      16.978   4.772  18.294  0.00  0.00    +0.000 C 
ATOM     64  CD1 LEU A   3      19.330   5.538  17.810  0.00  0.00    +0.000 C 
ENDBRANCH  61  62
ENDBRANCH  45  61
ENDBRANCH  41  45
ENDBRANCH  40  43
BRANCH  40  65
ATOM     65  CB  THR A   4      18.198  -2.425  18.871  0.00  0.00    +0.137 C 
ATOM     66  CG2 THR A   4      17.127  -2.388  19.968  0.00  0.00    +0.034 C 
BRANCH  65  67
ATOM     67  OG1 THR A   4      17.587  -2.335  17.579  0.00  0.00    -0.382 OA
ATOM     68  HG1 THR A   4      16.945  -3.080  17.466  0.00  0.00    +0.210 HD
ENDBRANCH  65  67
ENDBRANCH  40  65
ENDBRANCH  36  40
ENDBRANCH   1  38
BRANCH   1  69
ATOM     69  CB  THR A   5      21.078  -0.172  14.742  0.00  0.00    +0.137 C 
ATOM     70  CG2 THR A   5      20.028  -1.228  14.433  0.00  0.00    +0.034 C 
BRANCH  69  71
ATOM     71  OG1 THR A   5      20.530   1.132  14.507  0.00  0.00    -0.382 OA
ATOM     72  HG1 THR A   5      20.225   1.196  13.567  0.00  0.00    +0.210 HD
ENDBRANCH  69  71
ENDBRANCH   1  69
TORSDOF 28
REMARK  Name = ../refined-set-2016/3r17/3r17_pocket.pdb
REMARK  158 active torsions:
REMARK  status: ('A' for Active; 'I' for Inactive)
REMARK    1  A    between atoms: _1  and  _3
REMARK    2  A    between atoms: _3  and  _4
REMARK    3  A    between atoms: _3  and  _6
REMARK    4  A    between atoms: _6  and  _7
REMARK    5  A    between atoms: _17  and  _19
REMARK    6  A    between atoms: _19  and  _20
REMARK    7  A    between atoms: _19  and  _22
REMARK    8  A    between atoms: _22  and  _23
REMARK    9  A    between atoms: _28  and  _29
REMARK   10  A    between atoms: _31  and  _33
REMARK   11  A    between atoms: _33  and  _34
REMARK   12  A    between atoms: _33  and  _36
REMARK   13  A    between atoms: _36  and  _37
REMARK   14  A    between atoms: _43  and  _45
REMARK   15  A    between atoms: _45  and  _46
REMARK   16  A    between atoms: _45  and  _48
REMARK   17  A    between atoms: _48  and  _49
REMARK   18  A    between atoms: _52  and  _53
REMARK   19  A    between atoms: _58  and  _60
REMARK   20  A    between atoms: _60  and  _61
REMARK   21  A    between atoms: _60  and  _63
REMARK   22  A    between atoms: _63  and  _64
REMARK   23  A    between atoms: _69  and  _71
REMARK   24  A    between atoms: _71  and  _72
REMARK   25  A    between atoms: _71  and  _74
REMARK   26  A    between atoms: _74  and  _75
REMARK   27  A    between atoms: _80  and  _82
REMARK   28  A    between atoms: _82  and  _83
REMARK   29  A    between atoms: _86  and  _88
REMARK   30  A    between atoms: _88  and  _89
REMARK   31  A    between atoms: _88  and  _91
REMARK   32  A    between atoms: _91  and  _92
REMARK   33  A    between atoms: _97  and  _99
REMARK   34  A    between atoms: _99  and  _100
REMARK   35  A    between atoms: _99  and  _102
REMARK   36  A    between atoms: _102  and  _103
REMARK   37  A    between atoms: _106  and  _108
REMARK   38  A    between atoms: _108  and  _109
REMARK   39  A    between atoms: _108  and  _111
REMARK   40  A    between atoms: _111  and  _112
REMARK   41  A    between atoms: _112  and  _113
REMARK   42  A    between atoms: _118  and  _120
REMARK   43  A    between atoms: _120  and  _121
REMARK   44  A    between atoms: _120  and  _123
REMARK   45  A    between atoms: _123  and  _124
REMARK   46  A    between atoms: _130  and  _132
REMARK   47  A    between atoms: _143  and  _146
REMARK   48  A    between atoms: _146  and  _147
REMARK   49  A    between atoms: _155  and  _156
REMARK   50  A    between atoms: _164  and  _166
REMARK   51  A    between atoms: _166  and  _167
REMARK   52  A    between atoms: _166  and  _169
REMARK   53  A    between atoms: _169  and  _170
REMARK   54  A    between atoms: _170  and  _171
REMARK   55  A    between atoms: _174  and  _176
REMARK   56  A    between atoms: _176  and  _177
REMARK   57  A    between atoms: _176  and  _179
REMARK   58  A    between atoms: _179  and  _180
REMARK   59  A    between atoms: _185  and  _187
REMARK   60  A    between atoms: _187  and  _188
REMARK   61  A    between atoms: _187  and  _190
REMARK   62  A    between atoms: _190  and  _191
REMARK   63  A    between atoms: _191  and  _192
REMARK   64  A    between atoms: _195  and  _197
REMARK   65  A    between atoms: _197  and  _198
REMARK   66  A    between atoms: _197  and  _200
REMARK   67  A    between atoms: _200  and  _201
REMARK   68  A    between atoms: _204  and  _206
REMARK   69  A    between atoms: _206  and  _207
REMARK   70  A    between atoms: _206  and  _209
REMARK   71  A    between atoms: _209  and  _210
REMARK   72  A    between atoms: _211  and  ZN_443
REMARK   73  A    between atoms: _215  and  _217
REMARK   74  A    between atoms: _217  and  _218
REMARK   75  A    between atoms: _217  and  _220
REMARK   76  A    between atoms: _220  and  _221
REMARK   77  A    between atoms: _224  and  _226
REMARK   78  A    between atoms: _226  and  _227
REMARK   79  A    between atoms: _226  and  _229
REMARK   80  A    between atoms: _232  and  _234
REMARK   81  A    between atoms: _234  and  _235
REMARK   82  A    between atoms: _234  and  _237
REMARK   83  A    between atoms: _237  and  _238
REMARK   84  A    between atoms: _243  and  _245
REMARK   85  A    between atoms: _245  and  _246
REMARK   86  A    between atoms: _245  and  _248
REMARK   87  A    between atoms: _248  and  _249
REMARK   88  A    between atoms: _255  and  _257
REMARK   89  A    between atoms: _257  and  _258
REMARK   90  A    between atoms: _260  and  _262
REMARK   91  A    between atoms: _262  and  _263
REMARK   92  A    between atoms: _262  and  _265
REMARK   93  A    between atoms: _268  and  _270
REMARK   94  A    between atoms: _270  and  _271
REMARK   95  A    between atoms: _270  and  _273
REMARK   96  A    between atoms: _273  and  _274
REMARK   97  A    between atoms: _274  and  _275
REMARK   98  A    between atoms: _280  and  _282
REMARK   99  A    between atoms: _282  and  _283
REMARK  100  A    between atoms: _282  and  _285
REMARK  101  A    between atoms: _285  and  _286
REMARK  102  A    between atoms: _289  and  _291
REMARK  103  A    between atoms: _291  and  _292
REMARK  104  A    between atoms: _295  and  _297
REMARK  105  A    between atoms: _297  and  _298
REMARK  106  A    between atoms: _297  and  _300
REMARK  107  A    between atoms: _303  and  _305
REMARK  108  A    between atoms: _305  and  _306
REMARK  109  A    between atoms: _305  and  _308
REMARK  110  A    between atoms: _308  and  _309
REMARK  111  A    between atoms: _312  and  _314
REMARK  112  A    between atoms: _314  and  _315
REMARK  113  A    between atoms: _317  and  _319
REMARK  114  A    between atoms: _319  and  _320
REMARK  115  A    between atoms: _319  and  _322
REMARK  116  A    between atoms: _322  and  _323
REMARK  117  A    between atoms: _325  and  _327
REMARK  118  A    between atoms: _327  and  _328
REMARK  119  A    between atoms: _327  and  _330
REMARK  120  A    between atoms: _330  and  _331
REMARK  121  A    between atoms: _334  and  _336
REMARK  122  A    between atoms: _336  and  _337
REMARK  123  A    between atoms: _336  and  _339
REMARK  124  A    between atoms: _339  and  _340
REMARK  125  A    between atoms: _343  and  _345
REMARK  126  A    between atoms: _345  and  _346
REMARK  127  A    between atoms: _345  and  _348
REMARK  128  A    between atoms: _348  and  _349
REMARK  129  A    between atoms: _353  and  _354
REMARK  130  A    between atoms: _360  and  _361
REMARK  131  A    between atoms: _366  and  _368
REMARK  132  A    between atoms: _368  and  _369
REMARK  133  A    between atoms: _368  and  _371
REMARK  134  A    between atoms: _371  and  _372
REMARK  135  A    between atoms: _375  and  _377
REMARK  136  A    between atoms: _377  and  _378
REMARK  137  A    between atoms: _377  and  _380
REMARK  138  A    between atoms: _380  and  _381
REMARK  139  A    between atoms: _384  and  _386
REMARK  140  A    between atoms: _386  and  _387
REMARK  141  A    between atoms: _386  and  _389
REMARK  142  A    between atoms: _391  and  _393
REMARK  143  A    between atoms: _393  and  _394
REMARK  144  A    between atoms: _393  and  _396
REMARK  145  A    between atoms: _399  and  _401
REMARK  146  A    between atoms: _401  and  _402
REMARK  147  A    between atoms: _401  and  _404
REMARK  148  A    between atoms: _404  and  _405
REMARK  149  A    between atoms: _415  and  _417
REMARK  150  A    between atoms: _417  and  _418
REMARK  151  A    between atoms: _417  and  _420
REMARK  152  A    between atoms: _420  and  _421
REMARK  153  A    between atoms: _426  and  _428
REMARK  154  A    between atoms: _428  and  _429
REMARK  155  A    between atoms: _428  and  _431
REMARK  156  A    between atoms: _431  and  _432
REMARK  157  A    between atoms: _432  and  _433
REMARK  158  A    between atoms: _433  and  _434
REMARK                            x       y       z     vdW  Elec       q    Type
REMARK                         _______ _______ _______ _____ _____    ______ ____
ROOT
ATOM      1  C   CYS A   1      15.287   7.261  23.921  0.00  0.00    +0.239 C 
ATOM      2  N   VAL A   2      15.159   5.972  24.214  0.00  0.00    -0.298 N 
ATOM      3  H   VAL A   2      15.936   5.474  24.693  0.00  0.00    +0.150 HD
ATOM      4  O   CYS A   1      14.342   7.958  23.578  0.00  0.00    -0.274 OA
ENDROOT
BRANCH   1   5
ATOM      5  CA  CYS A   1      16.684   7.871  24.030  0.00  0.00    +0.156 C 
BRANCH   5   6
ATOM      6  N   CYS A   1      17.736   6.879  24.191  0.00  0.00    -0.237 NA
ATOM      7  H   CYS A   1      17.804   6.095  23.511  0.00  0.00    +0.142 HD
ENDBRANCH   5   6
BRANCH   5   8
ATOM      8  CB  CYS A   1      16.966   8.698  22.774  0.00  0.00    +0.095 C 
ATOM      9  SG  CYS A   1      17.011   7.708  21.242  0.00  0.00    -0.080 S 
ENDBRANCH   5   8
ENDBRANCH   1   5
BRANCH   2  10
ATOM     10  CA  VAL A   2      13.932   5.243  23.869  0.00  0.00    +0.137 C 
BRANCH  10  11
ATOM     11  CB  VAL A   2      14.208   4.023  22.958  0.00  0.00    +0.026 C 
ATOM     12  CG2 VAL A   2      12.895   3.293  22.641  0.00  0.00    +0.002 C 
ATOM     13  CG1 VAL A   2      14.928   4.456  21.661  0.00  0.00    +0.002 C 
ENDBRANCH  10  11
BRANCH  10  14
ATOM     14  C   VAL A   2      13.163   4.743  25.081  0.00  0.00    +0.227 C 
ATOM     15  O   VAL A   2      13.710   4.041  25.927  0.00  0.00    -0.286 OA
ENDBRANCH  10  14
ENDBRANCH   2  10
TORSDOF 6
REMARK  Name = ../refined-set-2016/3r17/3r17_pocket.pdb
REMARK  158 active torsions:
REMARK  status: ('A' for Active; 'I' for Inactive)
REMARK    1  A    between atoms: _1  and  _3
REMARK    2  A    between atoms: _3  and  _4
REMARK    3  A    between atoms: _3  and  _6
REMARK    4  A    between atoms: _6  and  _7
REMARK    5  A    between atoms: _17  and  _19
REMARK    6  A    between atoms: _19  and  _20
REMARK    7  A    between atoms: _19  and  _22
REMARK    8  A    between atoms: _22  and  _23
REMARK    9  A    between atoms: _28  and  _29
REMARK   10  A    between atoms: _31  and  _33
REMARK   11  A    between atoms: _33  and  _34
REMARK   12  A    between atoms: _33  and  _36
REMARK   13  A    between atoms: _36  and  _37
REMARK   14  A    between atoms: _43  and  _45
REMARK   15  A    between atoms: _45  and  _46
REMARK   16  A    between atoms: _45  and  _48
REMARK   17  A    between atoms: _48  and  _49
REMARK   18  A    between atoms: _52  and  _53
REMARK   19  A    between atoms: _58  and  _60
REMARK   20  A    between atoms: _60  and  _61
REMARK   21  A    between atoms: _60  and  _63
REMARK   22  A    between atoms: _63  and  _64
REMARK   23  A    between atoms: _69  and  _71
REMARK   24  A    between atoms: _71  and  _72
REMARK   25  A    between atoms: _71  and  _74
REMARK   26  A    between atoms: _74  and  _75
REMARK   27  A    between atoms: _80  and  _82
REMARK   28  A    between atoms: _82  and  _83
REMARK   29  A    between atoms: _86  and  _88
REMARK   30  A    between atoms: _88  and  _89
REMARK   31  A    between atoms: _88  and  _91
REMARK   32  A    between atoms: _91  and  _92
REMARK   33  A    between atoms: _97  and  _99
REMARK   34  A    between atoms: _99  and  _100
REMARK   35  A    between atoms: _99  and  _102
REMARK   36  A    between atoms: _102  and  _103
REMARK   37  A    between atoms: _106  and  _108
REMARK   38  A    between atoms: _108  and  _109
REMARK   39  A    between atoms: _108  and  _111
REMARK   40  A    between atoms: _111  and  _112
REMARK   41  A    between atoms: _112  and  _113
REMARK   42  A    between atoms: _118  and  _120
REMARK   43  A    between atoms: _120  and  _121
REMARK   44  A    between atoms: _120  and  _123
REMARK   45  A    between atoms: _123  and  _124
REMARK   46  A    between atoms: _130  and  _132
REMARK   47  A    between atoms: _143  and  _146
REMARK   48  A    between atoms: _146  and  _147
REMARK   49  A    between atoms: _155  and  _156
REMARK   50  A    between atoms: _164  and  _166
REMARK   51  A    between atoms: _166  and  _167
REMARK   52  A    between atoms: _166  and  _169
REMARK   53  A    between atoms: _169  and  _170
REMARK   54  A    between atoms: _170  and  _171
REMARK   55  A    between atoms: _174  and  _176
REMARK   56  A    between atoms: _176  and  _177
REMARK   57  A    between atoms: _176  and  _179
REMARK   58  A    between atoms: _179  and  _180
REMARK   59  A    between atoms: _185  and  _187
REMARK   60  A    between atoms: _187  and  _188
REMARK   61  A    between atoms: _187  and  _190
REMARK   62  A    between atoms: _190  and  _191
REMARK   63  A    between atoms: _191  and  _192
REMARK   64  A    between atoms: _195  and  _197
REMARK   65  A    between atoms: _197  and  _198
REMARK   66  A    between atoms: _197  and  _200
REMARK   67  A    between atoms: _200  and  _201
REMARK   68  A    between atoms: _204  and  _206
REMARK   69  A    between atoms: _206  and  _207
REMARK   70  A    between atoms: _206  and  _209
REMARK   71  A    between atoms: _209  and  _210
REMARK   72  A    between atoms: _211  and  ZN_443
REMARK   73  A    between atoms: _215  and  _217
REMARK   74  A    between atoms: _217  and  _218
REMARK   75  A    between atoms: _217  and  _220
REMARK   76  A    between atoms: _220  and  _221
REMARK   77  A    between atoms: _224  and  _226
REMARK   78  A    between atoms: _226  and  _227
REMARK   79  A    between atoms: _226  and  _229
REMARK   80  A    between atoms: _232  and  _234
REMARK   81  A    between atoms: _234  and  _235
REMARK   82  A    between atoms: _234  and  _237
REMARK   83  A    between atoms: _237  and  _238
REMARK   84  A    between atoms: _243  and  _245
REMARK   85  A    between atoms: _245  and  _246
REMARK   86  A    between atoms: _245  and  _248
REMARK   87  A    between atoms: _248  and  _249
REMARK   88  A    between atoms: _255  and  _257
REMARK   89  A    between atoms: _257  and  _258
REMARK   90  A    between atoms: _260  and  _262
REMARK   91  A    between atoms: _262  and  _263
REMARK   92  A    between atoms: _262  and  _265
REMARK   93  A    between atoms: _268  and  _270
REMARK   94  A    between atoms: _270  and  _271
REMARK   95  A    between atoms: _270  and  _273
REMARK   96  A    between atoms: _273  and  _274
REMARK   97  A    between atoms: _274  and  _275
REMARK   98  A    between atoms: _280  and  _282
REMARK   99  A    between atoms: _282  and  _283
REMARK  100  A    between atoms: _282  and  _285
REMARK  101  A    between atoms: _285  and  _286
REMARK  102  A    between atoms: _289  and  _291
REMARK  103  A    between atoms: _291  and  _292
REMARK  104  A    between atoms: _295  and  _297
REMARK  105  A    between atoms: _297  and  _298
REMARK  106  A    between atoms: _297  and  _300
REMARK  107  A    between atoms: _303  and  _305
REMARK  108  A    between atoms: _305  and  _306
REMARK  109  A    between atoms: _305  and  _308
REMARK  110  A    between atoms: _308  and  _309
REMARK  111  A    between atoms: _312  and  _314
REMARK  112  A    between atoms: _314  and  _315
REMARK  113  A    between atoms: _317  and  _319
REMARK  114  A    between atoms: _319  and  _320
REMARK  115  A    between atoms: _319  and  _322
REMARK  116  A    between atoms: _322  and  _323
REMARK  117  A    between atoms: _325  and  _327
REMARK  118  A    between atoms: _327  and  _328
REMARK  119  A    between atoms: _327  and  _330
REMARK  120  A    between atoms: _330  and  _331
REMARK  121  A    between atoms: _334  and  _336
REMARK  122  A    between atoms: _336  and  _337
REMARK  123  A    between atoms: _336  and  _339
REMARK  124  A    between atoms: _339  and  _340
REMARK  125  A    between atoms: _343  and  _345
REMARK  126  A    between atoms: _345  and  _346
REMARK  127  A    between atoms: _345  and  _348
REMARK  128  A    between atoms: _348  and  _349
REMARK  129  A    between atoms: _353  and  _354
REMARK  130  A    between atoms: _360  and  _361
REMARK  131  A    between atoms: _366  and  _368
REMARK  132  A    between atoms: _368  and  _369
REMARK  133  A    between atoms: _368  and  _371
REMARK  134  A    between atoms: _371  and  _372
REMARK  135  A    between atoms: _375  and  _377
REMARK  136  A    between atoms: _377  and  _378
REMARK  137  A    between atoms: _377  and  _380
REMARK  138  A    between atoms: _380  and  _381
REMARK  139  A    between atoms: _384  and  _386
REMARK  140  A    between atoms: _386  and  _387
REMARK  141  A    between atoms: _386  and  _389
REMARK  142  A    between atoms: _391  and  _393
REMARK  143  A    between atoms: _393  and  _394
REMARK  144  A    between atoms: _393  and  _396
REMARK  145  A    between atoms: _399  and  _401
REMARK  146  A    between atoms: _401  and  _402
REMARK  147  A    between atoms: _401  and  _404
REMARK  148  A    between atoms: _404  and  _405
REMARK  149  A    between atoms: _415  and  _417
REMARK  150  A    between atoms: _417  and  _418
REMARK  151  A    between atoms: _417  and  _420
REMARK  152  A    between atoms: _420  and  _421
REMARK  153  A    between atoms: _426  and  _428
REMARK  154  A    between atoms: _428  and  _429
REMARK  155  A    between atoms: _428  and  _431
REMARK  156  A    between atoms: _431  and  _432
REMARK  157  A    between atoms: _432  and  _433
REMARK  158  A    between atoms: _433  and  _434
REMARK                            x       y       z     vdW  Elec       q    Type
REMARK                         _______ _______ _______ _____ _____    ______ ____
ROOT
ATOM      1  CG  TRP A   1      12.457  -0.224  24.053  0.00  0.00    -0.002 A 
ATOM      2  CD1 TRP A   1      13.677   0.357  24.234  0.00  0.00    +0.068 A 
ATOM      3  NE1 TRP A   1      14.387   0.336  23.055  0.00  0.00    -0.352 N 
ATOM      4  HE1 TRP A   1      15.346   0.714  22.921  0.00  0.00    +0.166 HD
ATOM      5  CE2 TRP A   1      13.624  -0.265  22.085  0.00  0.00    +0.056 A 
ATOM      6  CZ2 TRP A   1      13.908  -0.513  20.745  0.00  0.00    +0.017 A 
ATOM      7  CH2 TRP A   1      12.936  -1.133  19.995  0.00  0.00    +0.001 A 
ATOM      8  CZ3 TRP A   1      11.699  -1.502  20.552  0.00  0.00    +0.000 A 
ATOM      9  CE3 TRP A   1      11.414  -1.241  21.884  0.00  0.00    +0.001 A 
ATOM     10  CD2 TRP A   1      12.390  -0.607  22.671  0.00  0.00    +0.013 A 
ENDROOT
BRANCH   1  11
ATOM     11  CB  TRP A   1      11.365  -0.358  25.064  0.00  0.00    +0.053 C 
BRANCH  11  12
ATOM     12  CA  TRP A   1      10.349   0.790  24.913  0.00  0.00    +0.137 C 
BRANCH  12  13
ATOM     13  N   TRP A   1      10.810   1.981  25.615  0.00  0.00    -0.239 NA
ATOM     14  H   TRP A   1      11.448   1.885  26.431  0.00  0.00    +0.142 HD
ENDBRANCH  12  13
BRANCH  12  15
ATOM     15  C   TRP A   1       8.986   0.350  25.416  0.00  0.00    +0.224 C 
ATOM     16  O   TRP A   1       8.758   0.260  26.619  0.00  0.00    -0.287 OA
ENDBRANCH  12  15
ENDBRANCH  11  12
ENDBRANCH   1  11
TORSDOF 4
REMARK  Name = ../refined-set-2016/3r17/3r17_pocket.pdb
REMARK  158 active torsions:
REMARK  status: ('A' for Active; 'I' for Inactive)
REMARK    1  A    between atoms: _1  and  _3
REMARK    2  A    between atoms: _3  and  _4
REMARK    3  A    between atoms: _3  and  _6
REMARK    4  A    between atoms: _6  and  _7
REMARK    5  A    between atoms: _17  and  _19
REMARK    6  A    between atoms: _19  and  _20
REMARK    7  A    between atoms: _19  and  _22
REMARK    8  A    between atoms: _22  and  _23
REMARK    9  A    between atoms: _28  and  _29
REMARK   10  A    between atoms: _31  and  _33
REMARK   11  A    between atoms: _33  and  _34
REMARK   12  A    between atoms: _33  and  _36
REMARK   13  A    between atoms: _36  and  _37
REMARK   14  A    between atoms: _43  and  _45
REMARK   15  A    between atoms: _45  and  _46
REMARK   16  A    between atoms: _45  and  _48
REMARK   17  A    between atoms: _48  and  _49
REMARK   18  A    between atoms: _52  and  _53
REMARK   19  A    between atoms: _58  and  _60
REMARK   20  A    between atoms: _60  and  _61
REMARK   21  A    between atoms: _60  and  _63
REMARK   22  A    between atoms: _63  and  _64
REMARK   23  A    between atoms: _69  and  _71
REMARK   24  A    between atoms: _71  and  _72
REMARK   25  A    between atoms: _71  and  _74
REMARK   26  A    between atoms: _74  and  _75
REMARK   27  A    between atoms: _80  and  _82
REMARK   28  A    between atoms: _82  and  _83
REMARK   29  A    between atoms: _86  and  _88
REMARK   30  A    between atoms: _88  and  _89
REMARK   31  A    between atoms: _88  and  _91
REMARK   32  A    between atoms: _91  and  _92
REMARK   33  A    between atoms: _97  and  _99
REMARK   34  A    between atoms: _99  and  _100
REMARK   35  A    between atoms: _99  and  _102
REMARK   36  A    between atoms: _102  and  _103
REMARK   37  A    between atoms: _106  and  _108
REMARK   38  A    between atoms: _108  and  _109
REMARK   39  A    between atoms: _108  and  _111
REMARK   40  A    between atoms: _111  and  _112
REMARK   41  A    between atoms: _112  and  _113
REMARK   42  A    between atoms: _118  and  _120
REMARK   43  A    between atoms: _120  and  _121
REMARK   44  A    between atoms: _120  and  _123
REMARK   45  A    between atoms: _123  and  _124
REMARK   46  A    between atoms: _130  and  _132
REMARK   47  A    between atoms: _143  and  _146
REMARK   48  A    between atoms: _146  and  _147
REMARK   49  A    between atoms: _155  and  _156
REMARK   50  A    between atoms: _164  and  _166
REMARK   51  A    between atoms: _166  and  _167
REMARK   52  A    between atoms: _166  and  _169
REMARK   53  A    between atoms: _169  and  _170
REMARK   54  A    between atoms: _170  and  _171
REMARK   55  A    between atoms: _174  and  _176
REMARK   56  A    between atoms: _176  and  _177
REMARK   57  A    between atoms: _176  and  _179
REMARK   58  A    between atoms: _179  and  _180
REMARK   59  A    between atoms: _185  and  _187
REMARK   60  A    between atoms: _187  and  _188
REMARK   61  A    between atoms: _187  and  _190
REMARK   62  A    between atoms: _190  and  _191
REMARK   63  A    between atoms: _191  and  _192
REMARK   64  A    between atoms: _195  and  _197
REMARK   65  A    between atoms: _197  and  _198
REMARK   66  A    between atoms: _197  and  _200
REMARK   67  A    between atoms: _200  and  _201
REMARK   68  A    between atoms: _204  and  _206
REMARK   69  A    between atoms: _206  and  _207
REMARK   70  A    between atoms: _206  and  _209
REMARK   71  A    between atoms: _209  and  _210
REMARK   72  A    between atoms: _211  and  ZN_443
REMARK   73  A    between atoms: _215  and  _217
REMARK   74  A    between atoms: _217  and  _218
REMARK   75  A    between atoms: _217  and  _220
REMARK   76  A    between atoms: _220  and  _221
REMARK   77  A    between atoms: _224  and  _226
REMARK   78  A    between atoms: _226  and  _227
REMARK   79  A    between atoms: _226  and  _229
REMARK   80  A    between atoms: _232  and  _234
REMARK   81  A    between atoms: _234  and  _235
REMARK   82  A    between atoms: _234  and  _237
REMARK   83  A    between atoms: _237  and  _238
REMARK   84  A    between atoms: _243  and  _245
REMARK   85  A    between atoms: _245  and  _246
REMARK   86  A    between atoms: _245  and  _248
REMARK   87  A    between atoms: _248  and  _249
REMARK   88  A    between atoms: _255  and  _257
REMARK   89  A    between atoms: _257  and  _258
REMARK   90  A    between atoms: _260  and  _262
REMARK   91  A    between atoms: _262  and  _263
REMARK   92  A    between atoms: _262  and  _265
REMARK   93  A    between atoms: _268  and  _270
REMARK   94  A    between atoms: _270  and  _271
REMARK   95  A    between atoms: _270  and  _273
REMARK   96  A    between atoms: _273  and  _274
REMARK   97  A    between atoms: _274  and  _275
REMARK   98  A    between atoms: _280  and  _282
REMARK   99  A    between atoms: _282  and  _283
REMARK  100  A    between atoms: _282  and  _285
REMARK  101  A    between atoms: _285  and  _286
REMARK  102  A    between atoms: _289  and  _291
REMARK  103  A    between atoms: _291  and  _292
REMARK  104  A    between atoms: _295  and  _297
REMARK  105  A    between atoms: _297  and  _298
REMARK  106  A    between atoms: _297  and  _300
REMARK  107  A    between atoms: _303  and  _305
REMARK  108  A    between atoms: _305  and  _306
REMARK  109  A    between atoms: _305  and  _308
REMARK  110  A    between atoms: _308  and  _309
REMARK  111  A    between atoms: _312  and  _314
REMARK  112  A    between atoms: _314  and  _315
REMARK  113  A    between atoms: _317  and  _319
REMARK  114  A    between atoms: _319  and  _320
REMARK  115  A    between atoms: _319  and  _322
REMARK  116  A    between atoms: _322  and  _323
REMARK  117  A    between atoms: _325  and  _327
REMARK  118  A    between atoms: _327  and  _328
REMARK  119  A    between atoms: _327  and  _330
REMARK  120  A    between atoms: _330  and  _331
REMARK  121  A    between atoms: _334  and  _336
REMARK  122  A    between atoms: _336  and  _337
REMARK  123  A    between atoms: _336  and  _339
REMARK  124  A    between atoms: _339  and  _340
REMARK  125  A    between atoms: _343  and  _345
REMARK  126  A    between atoms: _345  and  _346
REMARK  127  A    between atoms: _345  and  _348
REMARK  128  A    between atoms: _348  and  _349
REMARK  129  A    between atoms: _353  and  _354
REMARK  130  A    between atoms: _360  and  _361
REMARK  131  A    between atoms: _366  and  _368
REMARK  132  A    between atoms: _368  and  _369
REMARK  133  A    between atoms: _368  and  _371
REMARK  134  A    between atoms: _371  and  _372
REMARK  135  A    between atoms: _375  and  _377
REMARK  136  A    between atoms: _377  and  _378
REMARK  137  A    between atoms: _377  and  _380
REMARK  138  A    between atoms: _380  and  _381
REMARK  139  A    between atoms: _384  and  _386
REMARK  140  A    between atoms: _386  and  _387
REMARK  141  A    between atoms: _386  and  _389
REMARK  142  A    between atoms: _391  and  _393
REMARK  143  A    between atoms: _393  and  _394
REMARK  144  A    between atoms: _393  and  _396
REMARK  145  A    between atoms: _399  and  _401
REMARK  146  A    between atoms: _401  and  _402
REMARK  147  A    between atoms: _401  and  _404
REMARK  148  A    between atoms: _404  and  _405
REMARK  149  A    between atoms: _415  and  _417
REMARK  150  A    between atoms: _417  and  _418
REMARK  151  A    between atoms: _417  and  _420
REMARK  152  A    between atoms: _420  and  _421
REMARK  153  A    between atoms: _426  and  _428
REMARK  154  A    between atoms: _428  and  _429
REMARK  155  A    between atoms: _428  and  _431
REMARK  156  A    between atoms: _431  and  _432
REMARK  157  A    between atoms: _432  and  _433
REMARK  158  A    between atoms: _433  and  _434
REMARK                            x       y       z     vdW  Elec       q    Type
REMARK                         _______ _______ _______ _____ _____    ______ ____
ROOT
ATOM      1  CB  ASN A   1      19.198  -7.454  10.342  0.00  0.00    +0.110 C 
ENDROOT
BRANCH   1   2
ATOM      2  CG  ASN A   1      17.696  -7.573  10.189  0.00  0.00    +0.221 C 
ATOM      3  OD1 ASN A   1      17.084  -8.482  10.743  0.00  0.00    -0.275 OA
ATOM      4  ND2 ASN A   1      17.091  -6.644   9.439  0.00  0.00    -0.329 N 
ATOM      5 HD21 ASN A   1      16.060  -6.674   9.306  0.00  0.00    +0.145 HD
ATOM      6 HD22 ASN A   1      17.652  -5.893   8.989  0.00  0.00    +0.145 HD
ENDBRANCH   1   2
BRANCH   1   7
ATOM      7  CA  ASN A   1      19.749  -8.331  11.475  0.00  0.00    +0.142 C 
BRANCH   7   8
ATOM      8  N   ASN A   1      19.447  -9.730  11.214  0.00  0.00    -0.239 NA
ATOM      9  H   ASN A   1      18.545  -9.977  10.759  0.00  0.00    +0.142 HD
ENDBRANCH   7   8
BRANCH   7  10
ATOM     10  C   ASN A   1      19.206  -7.894  12.842  0.00  0.00    +0.225 C 
ATOM     11  O   ASN A   1      18.530  -6.867  12.959  0.00  0.00    -0.287 OA
ENDBRANCH   7  10
ENDBRANCH   1   7
TORSDOF 4
REMARK  Name = ../refined-set-2016/3r17/3r17_pocket.pdb
REMARK  158 active torsions:
REMARK  status: ('A' for Active; 'I' for Inactive)
REMARK    1  A    between atoms: _1  and  _3
REMARK    2  A    between atoms: _3  and  _4
REMARK    3  A    between atoms: _3  and  _6
REMARK    4  A    between atoms: _6  and  _7
REMARK    5  A    between atoms: _17  and  _19
REMARK    6  A    between atoms: _19  and  _20
REMARK    7  A    between atoms: _19  and  _22
REMARK    8  A    between atoms: _22  and  _23
REMARK    9  A    between atoms: _28  and  _29
REMARK   10  A    between atoms: _31  and  _33
REMARK   11  A    between atoms: _33  and  _34
REMARK   12  A    between atoms: _33  and  _36
REMARK   13  A    between atoms: _36  and  _37
REMARK   14  A    between atoms: _43  and  _45
REMARK   15  A    between atoms: _45  and  _46
REMARK   16  A    between atoms: _45  and  _48
REMARK   17  A    between atoms: _48  and  _49
REMARK   18  A    between atoms: _52  and  _53
REMARK   19  A    between atoms: _58  and  _60
REMARK   20  A    between atoms: _60  and  _61
REMARK   21  A    between atoms: _60  and  _63
REMARK   22  A    between atoms: _63  and  _64
REMARK   23  A    between atoms: _69  and  _71
REMARK   24  A    between atoms: _71  and  _72
REMARK   25  A    between atoms: _71  and  _74
REMARK   26  A    between atoms: _74  and  _75
REMARK   27  A    between atoms: _80  and  _82
REMARK   28  A    between atoms: _82  and  _83
REMARK   29  A    between atoms: _86  and  _88
REMARK   30  A    between atoms: _88  and  _89
REMARK   31  A    between atoms: _88  and  _91
REMARK   32  A    between atoms: _91  and  _92
REMARK   33  A    between atoms: _97  and  _99
REMARK   34  A    between atoms: _99  and  _100
REMARK   35  A    between atoms: _99  and  _102
REMARK   36  A    between atoms: _102  and  _103
REMARK   37  A    between atoms: _106  and  _108
REMARK   38  A    between atoms: _108  and  _109
REMARK   39  A    between atoms: _108  and  _111
REMARK   40  A    between atoms: _111  and  _112
REMARK   41  A    between atoms: _112  and  _113
REMARK   42  A    between atoms: _118  and  _120
REMARK   43  A    between atoms: _120  and  _121
REMARK   44  A    between atoms: _120  and  _123
REMARK   45  A    between atoms: _123  and  _124
REMARK   46  A    between atoms: _130  and  _132
REMARK   47  A    between atoms: _143  and  _146
REMARK   48  A    between atoms: _146  and  _147
REMARK   49  A    between atoms: _155  and  _156
REMARK   50  A    between atoms: _164  and  _166
REMARK   51  A    between atoms: _166  and  _167
REMARK   52  A    between atoms: _166  and  _169
REMARK   53  A    between atoms: _169  and  _170
REMARK   54  A    between atoms: _170  and  _171
REMARK   55  A    between atoms: _174  and  _176
REMARK   56  A    between atoms: _176  and  _177
REMARK   57  A    between atoms: _176  and  _179
REMARK   58  A    between atoms: _179  and  _180
REMARK   59  A    between atoms: _185  and  _187
REMARK   60  A    between atoms: _187  and  _188
REMARK   61  A    between atoms: _187  and  _190
REMARK   62  A    between atoms: _190  and  _191
REMARK   63  A    between atoms: _191  and  _192
REMARK   64  A    between atoms: _195  and  _197
REMARK   65  A    between atoms: _197  and  _198
REMARK   66  A    between atoms: _197  and  _200
REMARK   67  A    between atoms: _200  and  _201
REMARK   68  A    between atoms: _204  and  _206
REMARK   69  A    between atoms: _206  and  _207
REMARK   70  A    between atoms: _206  and  _209
REMARK   71  A    between atoms: _209  and  _210
REMARK   72  A    between atoms: _211  and  ZN_443
REMARK   73  A    between atoms: _215  and  _217
REMARK   74  A    between atoms: _217  and  _218
REMARK   75  A    between atoms: _217  and  _220
REMARK   76  A    between atoms: _220  and  _221
REMARK   77  A    between atoms: _224  and  _226
REMARK   78  A    between atoms: _226  and  _227
REMARK   79  A    between atoms: _226  and  _229
REMARK   80  A    between atoms: _232  and  _234
REMARK   81  A    between atoms: _234  and  _235
REMARK   82  A    between atoms: _234  and  _237
REMARK   83  A    between atoms: _237  and  _238
REMARK   84  A    between atoms: _243  and  _245
REMARK   85  A    between atoms: _245  and  _246
REMARK   86  A    between atoms: _245  and  _248
REMARK   87  A    between atoms: _248  and  _249
REMARK   88  A    between atoms: _255  and  _257
REMARK   89  A    between atoms: _257  and  _258
REMARK   90  A    between atoms: _260  and  _262
REMARK   91  A    between atoms: _262  and  _263
REMARK   92  A    between atoms: _262  and  _265
REMARK   93  A    between atoms: _268  and  _270
REMARK   94  A    between atoms: _270  and  _271
REMARK   95  A    between atoms: _270  and  _273
REMARK   96  A    between atoms: _273  and  _274
REMARK   97  A    between atoms: _274  and  _275
REMARK   98  A    between atoms: _280  and  _282
REMARK   99  A    between atoms: _282  and  _283
REMARK  100  A    between atoms: _282  and  _285
REMARK  101  A    between atoms: _285  and  _286
REMARK  102  A    between atoms: _289  and  _291
REMARK  103  A    between atoms: _291  and  _292
REMARK  104  A    between atoms: _295  and  _297
REMARK  105  A    between atoms: _297  and  _298
REMARK  106  A    between atoms: _297  and  _300
REMARK  107  A    between atoms: _303  and  _305
REMARK  108  A    between atoms: _305  and  _306
REMARK  109  A    between atoms: _305  and  _308
REMARK  110  A    between atoms: _308  and  _309
REMARK  111  A    between atoms: _312  and  _314
REMARK  112  A    between atoms: _314  and  _315
REMARK  113  A    between atoms: _317  and  _319
REMARK  114  A    between atoms: _319  and  _320
REMARK  115  A    between atoms: _319  and  _322
REMARK  116  A    between atoms: _322  and  _323
REMARK  117  A    between atoms: _325  and  _327
REMARK  118  A    between atoms: _327  and  _328
REMARK  119  A    between atoms: _327  and  _330
REMARK  120  A    between atoms: _330  and  _331
REMARK  121  A    between atoms: _334  and  _336
REMARK  122  A    between atoms: _336  and  _337
REMARK  123  A    between atoms: _336  and  _339
REMARK  124  A    between atoms: _339  and  _340
REMARK  125  A    between atoms: _343  and  _345
REMARK  126  A    between atoms: _345  and  _346
REMARK  127  A    between atoms: _345  and  _348
REMARK  128  A    between atoms: _348  and  _349
REMARK  129  A    between atoms: _353  and  _354
REMARK  130  A    between atoms: _360  and  _361
REMARK  131  A    between atoms: _366  and  _368
REMARK  132  A    between atoms: _368  and  _369
REMARK  133  A    between atoms: _368  and  _371
REMARK  134  A    between atoms: _371  and  _372
REMARK  135  A    between atoms: _375  and  _377
REMARK  136  A    between atoms: _377  and  _378
REMARK  137  A    between atoms: _377  and  _380
REMARK  138  A    between atoms: _380  and  _381
REMARK  139  A    between atoms: _384  and  _386
REMARK  140  A    between atoms: _386  and  _387
REMARK  141  A    between atoms: _386  and  _389
REMARK  142  A    between atoms: _391  and  _393
REMARK  143  A    between atoms: _393  and  _394
REMARK  144  A    between atoms: _393  and  _396
REMARK  145  A    between atoms: _399  and  _401
REMARK  146  A    between atoms: _401  and  _402
REMARK  147  A    between atoms: _401  and  _404
REMARK  148  A    between atoms: _404  and  _405
REMARK  149  A    between atoms: _415  and  _417
REMARK  150  A    between atoms: _417  and  _418
REMARK  151  A    between atoms: _417  and  _420
REMARK  152  A    between atoms: _420  and  _421
REMARK  153  A    between atoms: _426  and  _428
REMARK  154  A    between atoms: _428  and  _429
REMARK  155  A    between atoms: _428  and  _431
REMARK  156  A    between atoms: _431  and  _432
REMARK  157  A    between atoms: _432  and  _433
REMARK  158  A    between atoms: _433  and  _434
REMARK                            x       y       z     vdW  Elec       q    Type
REMARK                         _______ _______ _______ _____ _____    ______ ____
ROOT
ATOM      1  NE  ARG A   1      23.532  -4.077  21.156  0.00  0.00    +0.330 N 
ATOM      2  CZ  ARG A   1      23.714  -3.077  22.021  0.00  0.00    +0.000 C 
ATOM      3  NH2 ARG A   1      24.919  -2.853  22.537  0.00  0.00    +0.330 N 
ATOM      4 HH21 ARG A   1      25.059  -2.073  23.211  0.00  0.00    +0.000 HD
ATOM      5 HH22 ARG A   1      25.721  -3.457  22.267  0.00  0.00    +0.000 HD
ATOM      6  NH1 ARG A   1      22.693  -2.307  22.380  0.00  0.00    +0.330 N 
ATOM      7 HH11 ARG A   1      22.840  -1.529  23.054  0.00  0.00    +0.000 HD
ATOM      8 HH12 ARG A   1      21.746  -2.482  21.987  0.00  0.00    +0.000 HD
ATOM      9  HE  ARG A   1      24.353  -4.672  20.925  0.00  0.00    +0.000 HD
ENDROOT
BRANCH   1  10
ATOM     10  CD  ARG A   1      22.254  -4.397  20.507  0.00  0.00    +0.000 C 
BRANCH  10  11
ATOM     11  CG  ARG A   1      22.327  -5.761  19.816  0.00  0.00    +0.000 C 
BRANCH  11  12
ATOM     12  CB  ARG A   1      21.210  -5.951  18.797  0.00  0.00    +0.000 C 
BRANCH  12  13
ATOM     13  CA  ARG A   1      21.099  -7.388  18.268  0.00  0.00    +0.000 C 
BRANCH  13  14
ATOM     14  N   ARG A   1      20.128  -7.447  17.178  0.00  0.00    +0.000 NA
ATOM     15  H   ARG A   1      19.328  -6.782  17.176  0.00  0.00    +0.000 HD
ENDBRANCH  13  14
BRANCH  13  16
ATOM     16  C   ARG A   1      20.587  -8.299  19.369  0.00  0.00    +0.000 C 
ATOM     17  O   ARG A   1      19.382  -8.327  19.641  0.00  0.00    +0.000 OA
ENDBRANCH  13  16
ENDBRANCH  12  13
ENDBRANCH  11  12
ENDBRANCH  10  11
ENDBRANCH   1  10
TORSDOF 6
REMARK  Name = ../refined-set-2016/3r17/3r17_pocket.pdb
REMARK  158 active torsions:
REMARK  status: ('A' for Active; 'I' for Inactive)
REMARK    1  A    between atoms: _1  and  _3
REMARK    2  A    between atoms: _3  and  _4
REMARK    3  A    between atoms: _3  and  _6
REMARK    4  A    between atoms: _6  and  _7
REMARK    5  A    between atoms: _17  and  _19
REMARK    6  A    between atoms: _19  and  _20
REMARK    7  A    between atoms: _19  and  _22
REMARK    8  A    between atoms: _22  and  _23
REMARK    9  A    between atoms: _28  and  _29
REMARK   10  A    between atoms: _31  and  _33
REMARK   11  A    between atoms: _33  and  _34
REMARK   12  A    between atoms: _33  and  _36
REMARK   13  A    between atoms: _36  and  _37
REMARK   14  A    between atoms: _43  and  _45
REMARK   15  A    between atoms: _45  and  _46
REMARK   16  A    between atoms: _45  and  _48
REMARK   17  A    between atoms: _48  and  _49
REMARK   18  A    between atoms: _52  and  _53
REMARK   19  A    between atoms: _58  and  _60
REMARK   20  A    between atoms: _60  and  _61
REMARK   21  A    between atoms: _60  and  _63
REMARK   22  A    between atoms: _63  and  _64
REMARK   23  A    between atoms: _69  and  _71
REMARK   24  A    between atoms: _71  and  _72
REMARK   25  A    between atoms: _71  and  _74
REMARK   26  A    between atoms: _74  and  _75
REMARK   27  A    between atoms: _80  and  _82
REMARK   28  A    between atoms: _82  and  _83
REMARK   29  A    between atoms: _86  and  _88
REMARK   30  A    between atoms: _88  and  _89
REMARK   31  A    between atoms: _88  and  _91
REMARK   32  A    between atoms: _91  and  _92
REMARK   33  A    between atoms: _97  and  _99
REMARK   34  A    between atoms: _99  and  _100
REMARK   35  A    between atoms: _99  and  _102
REMARK   36  A    between atoms: _102  and  _103
REMARK   37  A    between atoms: _106  and  _108
REMARK   38  A    between atoms: _108  and  _109
REMARK   39  A    between atoms: _108  and  _111
REMARK   40  A    between atoms: _111  and  _112
REMARK   41  A    between atoms: _112  and  _113
REMARK   42  A    between atoms: _118  and  _120
REMARK   43  A    between atoms: _120  and  _121
REMARK   44  A    between atoms: _120  and  _123
REMARK   45  A    between atoms: _123  and  _124
REMARK   46  A    between atoms: _130  and  _132
REMARK   47  A    between atoms: _143  and  _146
REMARK   48  A    between atoms: _146  and  _147
REMARK   49  A    between atoms: _155  and  _156
REMARK   50  A    between atoms: _164  and  _166
REMARK   51  A    between atoms: _166  and  _167
REMARK   52  A    between atoms: _166  and  _169
REMARK   53  A    between atoms: _169  and  _170
REMARK   54  A    between atoms: _170  and  _171
REMARK   55  A    between atoms: _174  and  _176
REMARK   56  A    between atoms: _176  and  _177
REMARK   57  A    between atoms: _176  and  _179
REMARK   58  A    between atoms: _179  and  _180
REMARK   59  A    between atoms: _185  and  _187
REMARK   60  A    between atoms: _187  and  _188
REMARK   61  A    between atoms: _187  and  _190
REMARK   62  A    between atoms: _190  and  _191
REMARK   63  A    between atoms: _191  and  _192
REMARK   64  A    between atoms: _195  and  _197
REMARK   65  A    between atoms: _197  and  _198
REMARK   66  A    between atoms: _197  and  _200
REMARK   67  A    between atoms: _200  and  _201
REMARK   68  A    between atoms: _204  and  _206
REMARK   69  A    between atoms: _206  and  _207
REMARK   70  A    between atoms: _206  and  _209
REMARK   71  A    between atoms: _209  and  _210
REMARK   72  A    between atoms: _211  and  ZN_443
REMARK   73  A    between atoms: _215  and  _217
REMARK   74  A    between atoms: _217  and  _218
REMARK   75  A    between atoms: _217  and  _220
REMARK   76  A    between atoms: _220  and  _221
REMARK   77  A    between atoms: _224  and  _226
REMARK   78  A    between atoms: _226  and  _227
REMARK   79  A    between atoms: _226  and  _229
REMARK   80  A    between atoms: _232  and  _234
REMARK   81  A    between atoms: _234  and  _235
REMARK   82  A    between atoms: _234  and  _237
REMARK   83  A    between atoms: _237  and  _238
REMARK   84  A    between atoms: _243  and  _245
REMARK   85  A    between atoms: _245  and  _246
REMARK   86  A    between atoms: _245  and  _248
REMARK   87  A    between atoms: _248  and  _249
REMARK   88  A    between atoms: _255  and  _257
REMARK   89  A    between atoms: _257  and  _258
REMARK   90  A    between atoms: _260  and  _262
REMARK   91  A    between atoms: _262  and  _263
REMARK   92  A    between atoms: _262  and  _265
REMARK   93  A    between atoms: _268  and  _270
REMARK   94  A    between atoms: _270  and  _271
REMARK   95  A    between atoms: _270  and  _273
REMARK   96  A    between atoms: _273  and  _274
REMARK   97  A    between atoms: _274  and  _275
REMARK   98  A    between atoms: _280  and  _282
REMARK   99  A    between atoms: _282  and  _283
REMARK  100  A    between atoms: _282  and  _285
REMARK  101  A    between atoms: _285  and  _286
REMARK  102  A    between atoms: _289  and  _291
REMARK  103  A    between atoms: _291  and  _292
REMARK  104  A    between atoms: _295  and  _297
REMARK  105  A    between atoms: _297  and  _298
REMARK  106  A    between atoms: _297  and  _300
REMARK  107  A    between atoms: _303  and  _305
REMARK  108  A    between atoms: _305  and  _306
REMARK  109  A    between atoms: _305  and  _308
REMARK  110  A    between atoms: _308  and  _309
REMARK  111  A    between atoms: _312  and  _314
REMARK  112  A    between atoms: _314  and  _315
REMARK  113  A    between atoms: _317  and  _319
REMARK  114  A    between atoms: _319  and  _320
REMARK  115  A    between atoms: _319  and  _322
REMARK  116  A    between atoms: _322  and  _323
REMARK  117  A    between atoms: _325  and  _327
REMARK  118  A    between atoms: _327  and  _328
REMARK  119  A    between atoms: _327  and  _330
REMARK  120  A    between atoms: _330  and  _331
REMARK  121  A    between atoms: _334  and  _336
REMARK  122  A    between atoms: _336  and  _337
REMARK  123  A    between atoms: _336  and  _339
REMARK  124  A    between atoms: _339  and  _340
REMARK  125  A    between atoms: _343  and  _345
REMARK  126  A    between atoms: _345  and  _346
REMARK  127  A    between atoms: _345  and  _348
REMARK  128  A    between atoms: _348  and  _349
REMARK  129  A    between atoms: _353  and  _354
REMARK  130  A    between atoms: _360  and  _361
REMARK  131  A    between atoms: _366  and  _368
REMARK  132  A    between atoms: _368  and  _369
REMARK  133  A    between atoms: _368  and  _371
REMARK  134  A    between atoms: _371  and  _372
REMARK  135  A    between atoms: _375  and  _377
REMARK  136  A    between atoms: _377  and  _378
REMARK  137  A    between atoms: _377  and  _380
REMARK  138  A    between atoms: _380  and  _381
REMARK  139  A    between atoms: _384  and  _386
REMARK  140  A    between atoms: _386  and  _387
REMARK  141  A    between atoms: _386  and  _389
REMARK  142  A    between atoms: _391  and  _393
REMARK  143  A    between atoms: _393  and  _394
REMARK  144  A    between atoms: _393  and  _396
REMARK  145  A    between atoms: _399  and  _401
REMARK  146  A    between atoms: _401  and  _402
REMARK  147  A    between atoms: _401  and  _404
REMARK  148  A    between atoms: _404  and  _405
REMARK  149  A    between atoms: _415  and  _417
REMARK  150  A    between atoms: _417  and  _418
REMARK  151  A    between atoms: _417  and  _420
REMARK  152  A    between atoms: _420  and  _421
REMARK  153  A    between atoms: _426  and  _428
REMARK  154  A    between atoms: _428  and  _429
REMARK  155  A    between atoms: _428  and  _431
REMARK  156  A    between atoms: _431  and  _432
REMARK  157  A    between atoms: _432  and  _433
REMARK  158  A    between atoms: _433  and  _434
REMARK                            x       y       z     vdW  Elec       q    Type
REMARK                         _______ _______ _______ _____ _____    ______ ____
ROOT
ATOM      1  O   HOH     1      19.970  -4.241  15.757  0.00  0.00    +0.000 OA
ENDROOT
TORSDOF 0
REMARK  Name = ../refined-set-2016/3r17/3r17_pocket.pdb
REMARK  158 active torsions:
REMARK  status: ('A' for Active; 'I' for Inactive)
REMARK    1  A    between atoms: _1  and  _3
REMARK    2  A    between atoms: _3  and  _4
REMARK    3  A    between atoms: _3  and  _6
REMARK    4  A    between atoms: _6  and  _7
REMARK    5  A    between atoms: _17  and  _19
REMARK    6  A    between atoms: _19  and  _20
REMARK    7  A    between atoms: _19  and  _22
REMARK    8  A    between atoms: _22  and  _23
REMARK    9  A    between atoms: _28  and  _29
REMARK   10  A    between atoms: _31  and  _33
REMARK   11  A    between atoms: _33  and  _34
REMARK   12  A    between atoms: _33  and  _36
REMARK   13  A    between atoms: _36  and  _37
REMARK   14  A    between atoms: _43  and  _45
REMARK   15  A    between atoms: _45  and  _46
REMARK   16  A    between atoms: _45  and  _48
REMARK   17  A    between atoms: _48  and  _49
REMARK   18  A    between atoms: _52  and  _53
REMARK   19  A    between atoms: _58  and  _60
REMARK   20  A    between atoms: _60  and  _61
REMARK   21  A    between atoms: _60  and  _63
REMARK   22  A    between atoms: _63  and  _64
REMARK   23  A    between atoms: _69  and  _71
REMARK   24  A    between atoms: _71  and  _72
REMARK   25  A    between atoms: _71  and  _74
REMARK   26  A    between atoms: _74  and  _75
REMARK   27  A    between atoms: _80  and  _82
REMARK   28  A    between atoms: _82  and  _83
REMARK   29  A    between atoms: _86  and  _88
REMARK   30  A    between atoms: _88  and  _89
REMARK   31  A    between atoms: _88  and  _91
REMARK   32  A    between atoms: _91  and  _92
REMARK   33  A    between atoms: _97  and  _99
REMARK   34  A    between atoms: _99  and  _100
REMARK   35  A    between atoms: _99  and  _102
REMARK   36  A    between atoms: _102  and  _103
REMARK   37  A    between atoms: _106  and  _108
REMARK   38  A    between atoms: _108  and  _109
REMARK   39  A    between atoms: _108  and  _111
REMARK   40  A    between atoms: _111  and  _112
REMARK   41  A    between atoms: _112  and  _113
REMARK   42  A    between atoms: _118  and  _120
REMARK   43  A    between atoms: _120  and  _121
REMARK   44  A    between atoms: _120  and  _123
REMARK   45  A    between atoms: _123  and  _124
REMARK   46  A    between atoms: _130  and  _132
REMARK   47  A    between atoms: _143  and  _146
REMARK   48  A    between atoms: _146  and  _147
REMARK   49  A    between atoms: _155  and  _156
REMARK   50  A    between atoms: _164  and  _166
REMARK   51  A    between atoms: _166  and  _167
REMARK   52  A    between atoms: _166  and  _169
REMARK   53  A    between atoms: _169  and  _170
REMARK   54  A    between atoms: _170  and  _171
REMARK   55  A    between atoms: _174  and  _176
REMARK   56  A    between atoms: _176  and  _177
REMARK   57  A    between atoms: _176  and  _179
REMARK   58  A    between atoms: _179  and  _180
REMARK   59  A    between atoms: _185  and  _187
REMARK   60  A    between atoms: _187  and  _188
REMARK   61  A    between atoms: _187  and  _190
REMARK   62  A    between atoms: _190  and  _191
REMARK   63  A    between atoms: _191  and  _192
REMARK   64  A    between atoms: _195  and  _197
REMARK   65  A    between atoms: _197  and  _198
REMARK   66  A    between atoms: _197  and  _200
REMARK   67  A    between atoms: _200  and  _201
REMARK   68  A    between atoms: _204  and  _206
REMARK   69  A    between atoms: _206  and  _207
REMARK   70  A    between atoms: _206  and  _209
REMARK   71  A    between atoms: _209  and  _210
REMARK   72  A    between atoms: _211  and  ZN_443
REMARK   73  A    between atoms: _215  and  _217
REMARK   74  A    between atoms: _217  and  _218
REMARK   75  A    between atoms: _217  and  _220
REMARK   76  A    between atoms: _220  and  _221
REMARK   77  A    between atoms: _224  and  _226
REMARK   78  A    between atoms: _226  and  _227
REMARK   79  A    between atoms: _226  and  _229
REMARK   80  A    between atoms: _232  and  _234
REMARK   81  A    between atoms: _234  and  _235
REMARK   82  A    between atoms: _234  and  _237
REMARK   83  A    between atoms: _237  and  _238
REMARK   84  A    between atoms: _243  and  _245
REMARK   85  A    between atoms: _245  and  _246
REMARK   86  A    between atoms: _245  and  _248
REMARK   87  A    between atoms: _248  and  _249
REMARK   88  A    between atoms: _255  and  _257
REMARK   89  A    between atoms: _257  and  _258
REMARK   90  A    between atoms: _260  and  _262
REMARK   91  A    between atoms: _262  and  _263
REMARK   92  A    between atoms: _262  and  _265
REMARK   93  A    between atoms: _268  and  _270
REMARK   94  A    between atoms: _270  and  _271
REMARK   95  A    between atoms: _270  and  _273
REMARK   96  A    between atoms: _273  and  _274
REMARK   97  A    between atoms: _274  and  _275
REMARK   98  A    between atoms: _280  and  _282
REMARK   99  A    between atoms: _282  and  _283
REMARK  100  A    between atoms: _282  and  _285
REMARK  101  A    between atoms: _285  and  _286
REMARK  102  A    between atoms: _289  and  _291
REMARK  103  A    between atoms: _291  and  _292
REMARK  104  A    between atoms: _295  and  _297
REMARK  105  A    between atoms: _297  and  _298
REMARK  106  A    between atoms: _297  and  _300
REMARK  107  A    between atoms: _303  and  _305
REMARK  108  A    between atoms: _305  and  _306
REMARK  109  A    between atoms: _305  and  _308
REMARK  110  A    between atoms: _308  and  _309
REMARK  111  A    between atoms: _312  and  _314
REMARK  112  A    between atoms: _314  and  _315
REMARK  113  A    between atoms: _317  and  _319
REMARK  114  A    between atoms: _319  and  _320
REMARK  115  A    between atoms: _319  and  _322
REMARK  116  A    between atoms: _322  and  _323
REMARK  117  A    between atoms: _325  and  _327
REMARK  118  A    between atoms: _327  and  _328
REMARK  119  A    between atoms: _327  and  _330
REMARK  120  A    between atoms: _330  and  _331
REMARK  121  A    between atoms: _334  and  _336
REMARK  122  A    between atoms: _336  and  _337
REMARK  123  A    between atoms: _336  and  _339
REMARK  124  A    between atoms: _339  and  _340
REMARK  125  A    between atoms: _343  and  _345
REMARK  126  A    between atoms: _345  and  _346
REMARK  127  A    between atoms: _345  and  _348
REMARK  128  A    between atoms: _348  and  _349
REMARK  129  A    between atoms: _353  and  _354
REMARK  130  A    between atoms: _360  and  _361
REMARK  131  A    between atoms: _366  and  _368
REMARK  132  A    between atoms: _368  and  _369
REMARK  133  A    between atoms: _368  and  _371
REMARK  134  A    between atoms: _371  and  _372
REMARK  135  A    between atoms: _375  and  _377
REMARK  136  A    between atoms: _377  and  _378
REMARK  137  A    between atoms: _377  and  _380
REMARK  138  A    between atoms: _380  and  _381
REMARK  139  A    between atoms: _384  and  _386
REMARK  140  A    between atoms: _386  and  _387
REMARK  141  A    between atoms: _386  and  _389
REMARK  142  A    between atoms: _391  and  _393
REMARK  143  A    between atoms: _393  and  _394
REMARK  144  A    between atoms: _393  and  _396
REMARK  145  A    between atoms: _399  and  _401
REMARK  146  A    between atoms: _401  and  _402
REMARK  147  A    between atoms: _401  and  _404
REMARK  148  A    between atoms: _404  and  _405
REMARK  149  A    between atoms: _415  and  _417
REMARK  150  A    between atoms: _417  and  _418
REMARK  151  A    between atoms: _417  and  _420
REMARK  152  A    between atoms: _420  and  _421
REMARK  153  A    between atoms: _426  and  _428
REMARK  154  A    between atoms: _428  and  _429
REMARK  155  A    between atoms: _428  and  _431
REMARK  156  A    between atoms: _431  and  _432
REMARK  157  A    between atoms: _432  and  _433
REMARK  158  A    between atoms: _433  and  _434
REMARK                            x       y       z     vdW  Elec       q    Type
REMARK                         _______ _______ _______ _____ _____    ______ ____
ROOT
ATOM      1  O   HOH     1      18.708  -3.572  11.448  0.00  0.00    +0.000 OA
ENDROOT
TORSDOF 0
REMARK  Name = ../refined-set-2016/3r17/3r17_pocket.pdb
REMARK  158 active torsions:
REMARK  status: ('A' for Active; 'I' for Inactive)
REMARK    1  A    between atoms: _1  and  _3
REMARK    2  A    between atoms: _3  and  _4
REMARK    3  A    between atoms: _3  and  _6
REMARK    4  A    between atoms: _6  and  _7
REMARK    5  A    between atoms: _17  and  _19
REMARK    6  A    between atoms: _19  and  _20
REMARK    7  A    between atoms: _19  and  _22
REMARK    8  A    between atoms: _22  and  _23
REMARK    9  A    between atoms: _28  and  _29
REMARK   10  A    between atoms: _31  and  _33
REMARK   11  A    between atoms: _33  and  _34
REMARK   12  A    between atoms: _33  and  _36
REMARK   13  A    between atoms: _36  and  _37
REMARK   14  A    between atoms: _43  and  _45
REMARK   15  A    between atoms: _45  and  _46
REMARK   16  A    between atoms: _45  and  _48
REMARK   17  A    between atoms: _48  and  _49
REMARK   18  A    between atoms: _52  and  _53
REMARK   19  A    between atoms: _58  and  _60
REMARK   20  A    between atoms: _60  and  _61
REMARK   21  A    between atoms: _60  and  _63
REMARK   22  A    between atoms: _63  and  _64
REMARK   23  A    between atoms: _69  and  _71
REMARK   24  A    between atoms: _71  and  _72
REMARK   25  A    between atoms: _71  and  _74
REMARK   26  A    between atoms: _74  and  _75
REMARK   27  A    between atoms: _80  and  _82
REMARK   28  A    between atoms: _82  and  _83
REMARK   29  A    between atoms: _86  and  _88
REMARK   30  A    between atoms: _88  and  _89
REMARK   31  A    between atoms: _88  and  _91
REMARK   32  A    between atoms: _91  and  _92
REMARK   33  A    between atoms: _97  and  _99
REMARK   34  A    between atoms: _99  and  _100
REMARK   35  A    between atoms: _99  and  _102
REMARK   36  A    between atoms: _102  and  _103
REMARK   37  A    between atoms: _106  and  _108
REMARK   38  A    between atoms: _108  and  _109
REMARK   39  A    between atoms: _108  and  _111
REMARK   40  A    between atoms: _111  and  _112
REMARK   41  A    between atoms: _112  and  _113
REMARK   42  A    between atoms: _118  and  _120
REMARK   43  A    between atoms: _120  and  _121
REMARK   44  A    between atoms: _120  and  _123
REMARK   45  A    between atoms: _123  and  _124
REMARK   46  A    between atoms: _130  and  _132
REMARK   47  A    between atoms: _143  and  _146
REMARK   48  A    between atoms: _146  and  _147
REMARK   49  A    between atoms: _155  and  _156
REMARK   50  A    between atoms: _164  and  _166
REMARK   51  A    between atoms: _166  and  _167
REMARK   52  A    between atoms: _166  and  _169
REMARK   53  A    between atoms: _169  and  _170
REMARK   54  A    between atoms: _170  and  _171
REMARK   55  A    between atoms: _174  and  _176
REMARK   56  A    between atoms: _176  and  _177
REMARK   57  A    between atoms: _176  and  _179
REMARK   58  A    between atoms: _179  and  _180
REMARK   59  A    between atoms: _185  and  _187
REMARK   60  A    between atoms: _187  and  _188
REMARK   61  A    between atoms: _187  and  _190
REMARK   62  A    between atoms: _190  and  _191
REMARK   63  A    between atoms: _191  and  _192
REMARK   64  A    between atoms: _195  and  _197
REMARK   65  A    between atoms: _197  and  _198
REMARK   66  A    between atoms: _197  and  _200
REMARK   67  A    between atoms: _200  and  _201
REMARK   68  A    between atoms: _204  and  _206
REMARK   69  A    between atoms: _206  and  _207
REMARK   70  A    between atoms: _206  and  _209
REMARK   71  A    between atoms: _209  and  _210
REMARK   72  A    between atoms: _211  and  ZN_443
REMARK   73  A    between atoms: _215  and  _217
REMARK   74  A    between atoms: _217  and  _218
REMARK   75  A    between atoms: _217  and  _220
REMARK   76  A    between atoms: _220  and  _221
REMARK   77  A    between atoms: _224  and  _226
REMARK   78  A    between atoms: _226  and  _227
REMARK   79  A    between atoms: _226  and  _229
REMARK   80  A    between atoms: _232  and  _234
REMARK   81  A    between atoms: _234  and  _235
REMARK   82  A    between atoms: _234  and  _237
REMARK   83  A    between atoms: _237  and  _238
REMARK   84  A    between atoms: _243  and  _245
REMARK   85  A    between atoms: _245  and  _246
REMARK   86  A    between atoms: _245  and  _248
REMARK   87  A    between atoms: _248  and  _249
REMARK   88  A    between atoms: _255  and  _257
REMARK   89  A    between atoms: _257  and  _258
REMARK   90  A    between atoms: _260  and  _262
REMARK   91  A    between atoms: _262  and  _263
REMARK   92  A    between atoms: _262  and  _265
REMARK   93  A    between atoms: _268  and  _270
REMARK   94  A    between atoms: _270  and  _271
REMARK   95  A    between atoms: _270  and  _273
REMARK   96  A    between atoms: _273  and  _274
REMARK   97  A    between atoms: _274  and  _275
REMARK   98  A    between atoms: _280  and  _282
REMARK   99  A    between atoms: _282  and  _283
REMARK  100  A    between atoms: _282  and  _285
REMARK  101  A    between atoms: _285  and  _286
REMARK  102  A    between atoms: _289  and  _291
REMARK  103  A    between atoms: _291  and  _292
REMARK  104  A    between atoms: _295  and  _297
REMARK  105  A    between atoms: _297  and  _298
REMARK  106  A    between atoms: _297  and  _300
REMARK  107  A    between atoms: _303  and  _305
REMARK  108  A    between atoms: _305  and  _306
REMARK  109  A    between atoms: _305  and  _308
REMARK  110  A    between atoms: _308  and  _309
REMARK  111  A    between atoms: _312  and  _314
REMARK  112  A    between atoms: _314  and  _315
REMARK  113  A    between atoms: _317  and  _319
REMARK  114  A    between atoms: _319  and  _320
REMARK  115  A    between atoms: _319  and  _322
REMARK  116  A    between atoms: _322  and  _323
REMARK  117  A    between atoms: _325  and  _327
REMARK  118  A    between atoms: _327  and  _328
REMARK  119  A    between atoms: _327  and  _330
REMARK  120  A    between atoms: _330  and  _331
REMARK  121  A    between atoms: _334  and  _336
REMARK  122  A    between atoms: _336  and  _337
REMARK  123  A    between atoms: _336  and  _339
REMARK  124  A    between atoms: _339  and  _340
REMARK  125  A    between atoms: _343  and  _345
REMARK  126  A    between atoms: _345  and  _346
REMARK  127  A    between atoms: _345  and  _348
REMARK  128  A    between atoms: _348  and  _349
REMARK  129  A    between atoms: _353  and  _354
REMARK  130  A    between atoms: _360  and  _361
REMARK  131  A    between atoms: _366  and  _368
REMARK  132  A    between atoms: _368  and  _369
REMARK  133  A    between atoms: _368  and  _371
REMARK  134  A    between atoms: _371  and  _372
REMARK  135  A    between atoms: _375  and  _377
REMARK  136  A    between atoms: _377  and  _378
REMARK  137  A    between atoms: _377  and  _380
REMARK  138  A    between atoms: _380  and  _381
REMARK  139  A    between atoms: _384  and  _386
REMARK  140  A    between atoms: _386  and  _387
REMARK  141  A    between atoms: _386  and  _389
REMARK  142  A    between atoms: _391  and  _393
REMARK  143  A    between atoms: _393  and  _394
REMARK  144  A    between atoms: _393  and  _396
REMARK  145  A    between atoms: _399  and  _401
REMARK  146  A    between atoms: _401  and  _402
REMARK  147  A    between atoms: _401  and  _404
REMARK  148  A    between atoms: _404  and  _405
REMARK  149  A    between atoms: _415  and  _417
REMARK  150  A    between atoms: _417  and  _418
REMARK  151  A    between atoms: _417  and  _420
REMARK  152  A    between atoms: _420  and  _421
REMARK  153  A    between atoms: _426  and  _428
REMARK  154  A    between atoms: _428  and  _429
REMARK  155  A    between atoms: _428  and  _431
REMARK  156  A    between atoms: _431  and  _432
REMARK  157  A    between atoms: _432  and  _433
REMARK  158  A    between atoms: _433  and  _434
REMARK                            x       y       z     vdW  Elec       q    Type
REMARK                         _______ _______ _______ _____ _____    ______ ____
ROOT
ATOM      1  O   HOH     1      25.219   4.355  10.985  0.00  0.00    +0.000 OA
ENDROOT
TORSDOF 0
REMARK  Name = ../refined-set-2016/3r17/3r17_pocket.pdb
REMARK  158 active torsions:
REMARK  status: ('A' for Active; 'I' for Inactive)
REMARK    1  A    between atoms: _1  and  _3
REMARK    2  A    between atoms: _3  and  _4
REMARK    3  A    between atoms: _3  and  _6
REMARK    4  A    between atoms: _6  and  _7
REMARK    5  A    between atoms: _17  and  _19
REMARK    6  A    between atoms: _19  and  _20
REMARK    7  A    between atoms: _19  and  _22
REMARK    8  A    between atoms: _22  and  _23
REMARK    9  A    between atoms: _28  and  _29
REMARK   10  A    between atoms: _31  and  _33
REMARK   11  A    between atoms: _33  and  _34
REMARK   12  A    between atoms: _33  and  _36
REMARK   13  A    between atoms: _36  and  _37
REMARK   14  A    between atoms: _43  and  _45
REMARK   15  A    between atoms: _45  and  _46
REMARK   16  A    between atoms: _45  and  _48
REMARK   17  A    between atoms: _48  and  _49
REMARK   18  A    between atoms: _52  and  _53
REMARK   19  A    between atoms: _58  and  _60
REMARK   20  A    between atoms: _60  and  _61
REMARK   21  A    between atoms: _60  and  _63
REMARK   22  A    between atoms: _63  and  _64
REMARK   23  A    between atoms: _69  and  _71
REMARK   24  A    between atoms: _71  and  _72
REMARK   25  A    between atoms: _71  and  _74
REMARK   26  A    between atoms: _74  and  _75
REMARK   27  A    between atoms: _80  and  _82
REMARK   28  A    between atoms: _82  and  _83
REMARK   29  A    between atoms: _86  and  _88
REMARK   30  A    between atoms: _88  and  _89
REMARK   31  A    between atoms: _88  and  _91
REMARK   32  A    between atoms: _91  and  _92
REMARK   33  A    between atoms: _97  and  _99
REMARK   34  A    between atoms: _99  and  _100
REMARK   35  A    between atoms: _99  and  _102
REMARK   36  A    between atoms: _102  and  _103
REMARK   37  A    between atoms: _106  and  _108
REMARK   38  A    between atoms: _108  and  _109
REMARK   39  A    between atoms: _108  and  _111
REMARK   40  A    between atoms: _111  and  _112
REMARK   41  A    between atoms: _112  and  _113
REMARK   42  A    between atoms: _118  and  _120
REMARK   43  A    between atoms: _120  and  _121
REMARK   44  A    between atoms: _120  and  _123
REMARK   45  A    between atoms: _123  and  _124
REMARK   46  A    between atoms: _130  and  _132
REMARK   47  A    between atoms: _143  and  _146
REMARK   48  A    between atoms: _146  and  _147
REMARK   49  A    between atoms: _155  and  _156
REMARK   50  A    between atoms: _164  and  _166
REMARK   51  A    between atoms: _166  and  _167
REMARK   52  A    between atoms: _166  and  _169
REMARK   53  A    between atoms: _169  and  _170
REMARK   54  A    between atoms: _170  and  _171
REMARK   55  A    between atoms: _174  and  _176
REMARK   56  A    between atoms: _176  and  _177
REMARK   57  A    between atoms: _176  and  _179
REMARK   58  A    between atoms: _179  and  _180
REMARK   59  A    between atoms: _185  and  _187
REMARK   60  A    between atoms: _187  and  _188
REMARK   61  A    between atoms: _187  and  _190
REMARK   62  A    between atoms: _190  and  _191
REMARK   63  A    between atoms: _191  and  _192
REMARK   64  A    between atoms: _195  and  _197
REMARK   65  A    between atoms: _197  and  _198
REMARK   66  A    between atoms: _197  and  _200
REMARK   67  A    between atoms: _200  and  _201
REMARK   68  A    between atoms: _204  and  _206
REMARK   69  A    between atoms: _206  and  _207
REMARK   70  A    between atoms: _206  and  _209
REMARK   71  A    between atoms: _209  and  _210
REMARK   72  A    between atoms: _211  and  ZN_443
REMARK   73  A    between atoms: _215  and  _217
REMARK   74  A    between atoms: _217  and  _218
REMARK   75  A    between atoms: _217  and  _220
REMARK   76  A    between atoms: _220  and  _221
REMARK   77  A    between atoms: _224  and  _226
REMARK   78  A    between atoms: _226  and  _227
REMARK   79  A    between atoms: _226  and  _229
REMARK   80  A    between atoms: _232  and  _234
REMARK   81  A    between atoms: _234  and  _235
REMARK   82  A    between atoms: _234  and  _237
REMARK   83  A    between atoms: _237  and  _238
REMARK   84  A    between atoms: _243  and  _245
REMARK   85  A    between atoms: _245  and  _246
REMARK   86  A    between atoms: _245  and  _248
REMARK   87  A    between atoms: _248  and  _249
REMARK   88  A    between atoms: _255  and  _257
REMARK   89  A    between atoms: _257  and  _258
REMARK   90  A    between atoms: _260  and  _262
REMARK   91  A    between atoms: _262  and  _263
REMARK   92  A    between atoms: _262  and  _265
REMARK   93  A    between atoms: _268  and  _270
REMARK   94  A    between atoms: _270  and  _271
REMARK   95  A    between atoms: _270  and  _273
REMARK   96  A    between atoms: _273  and  _274
REMARK   97  A    between atoms: _274  and  _275
REMARK   98  A    between atoms: _280  and  _282
REMARK   99  A    between atoms: _282  and  _283
REMARK  100  A    between atoms: _282  and  _285
REMARK  101  A    between atoms: _285  and  _286
REMARK  102  A    between atoms: _289  and  _291
REMARK  103  A    between atoms: _291  and  _292
REMARK  104  A    between atoms: _295  and  _297
REMARK  105  A    between atoms: _297  and  _298
REMARK  106  A    between atoms: _297  and  _300
REMARK  107  A    between atoms: _303  and  _305
REMARK  108  A    between atoms: _305  and  _306
REMARK  109  A    between atoms: _305  and  _308
REMARK  110  A    between atoms: _308  and  _309
REMARK  111  A    between atoms: _312  and  _314
REMARK  112  A    between atoms: _314  and  _315
REMARK  113  A    between atoms: _317  and  _319
REMARK  114  A    between atoms: _319  and  _320
REMARK  115  A    between atoms: _319  and  _322
REMARK  116  A    between atoms: _322  and  _323
REMARK  117  A    between atoms: _325  and  _327
REMARK  118  A    between atoms: _327  and  _328
REMARK  119  A    between atoms: _327  and  _330
REMARK  120  A    between atoms: _330  and  _331
REMARK  121  A    between atoms: _334  and  _336
REMARK  122  A    between atoms: _336  and  _337
REMARK  123  A    between atoms: _336  and  _339
REMARK  124  A    between atoms: _339  and  _340
REMARK  125  A    between atoms: _343  and  _345
REMARK  126  A    between atoms: _345  and  _346
REMARK  127  A    between atoms: _345  and  _348
REMARK  128  A    between atoms: _348  and  _349
REMARK  129  A    between atoms: _353  and  _354
REMARK  130  A    between atoms: _360  and  _361
REMARK  131  A    between atoms: _366  and  _368
REMARK  132  A    between atoms: _368  and  _369
REMARK  133  A    between atoms: _368  and  _371
REMARK  134  A    between atoms: _371  and  _372
REMARK  135  A    between atoms: _375  and  _377
REMARK  136  A    between atoms: _377  and  _378
REMARK  137  A    between atoms: _377  and  _380
REMARK  138  A    between atoms: _380  and  _381
REMARK  139  A    between atoms: _384  and  _386
REMARK  140  A    between atoms: _386  and  _387
REMARK  141  A    between atoms: _386  and  _389
REMARK  142  A    between atoms: _391  and  _393
REMARK  143  A    between atoms: _393  and  _394
REMARK  144  A    between atoms: _393  and  _396
REMARK  145  A    between atoms: _399  and  _401
REMARK  146  A    between atoms: _401  and  _402
REMARK  147  A    between atoms: _401  and  _404
REMARK  148  A    between atoms: _404  and  _405
REMARK  149  A    between atoms: _415  and  _417
REMARK  150  A    between atoms: _417  and  _418
REMARK  151  A    between atoms: _417  and  _420
REMARK  152  A    between atoms: _420  and  _421
REMARK  153  A    between atoms: _426  and  _428
REMARK  154  A    between atoms: _428  and  _429
REMARK  155  A    between atoms: _428  and  _431
REMARK  156  A    between atoms: _431  and  _432
REMARK  157  A    between atoms: _432  and  _433
REMARK  158  A    between atoms: _433  and  _434
REMARK                            x       y       z     vdW  Elec       q    Type
REMARK                         _______ _______ _______ _____ _____    ______ ____
ROOT
ATOM      1  O   HOH     1      20.176   1.257  11.604  0.00  0.00    +0.000 OA
ENDROOT
TORSDOF 0
REMARK  Name = ../refined-set-2016/3r17/3r17_pocket.pdb
REMARK  158 active torsions:
REMARK  status: ('A' for Active; 'I' for Inactive)
REMARK    1  A    between atoms: _1  and  _3
REMARK    2  A    between atoms: _3  and  _4
REMARK    3  A    between atoms: _3  and  _6
REMARK    4  A    between atoms: _6  and  _7
REMARK    5  A    between atoms: _17  and  _19
REMARK    6  A    between atoms: _19  and  _20
REMARK    7  A    between atoms: _19  and  _22
REMARK    8  A    between atoms: _22  and  _23
REMARK    9  A    between atoms: _28  and  _29
REMARK   10  A    between atoms: _31  and  _33
REMARK   11  A    between atoms: _33  and  _34
REMARK   12  A    between atoms: _33  and  _36
REMARK   13  A    between atoms: _36  and  _37
REMARK   14  A    between atoms: _43  and  _45
REMARK   15  A    between atoms: _45  and  _46
REMARK   16  A    between atoms: _45  and  _48
REMARK   17  A    between atoms: _48  and  _49
REMARK   18  A    between atoms: _52  and  _53
REMARK   19  A    between atoms: _58  and  _60
REMARK   20  A    between atoms: _60  and  _61
REMARK   21  A    between atoms: _60  and  _63
REMARK   22  A    between atoms: _63  and  _64
REMARK   23  A    between atoms: _69  and  _71
REMARK   24  A    between atoms: _71  and  _72
REMARK   25  A    between atoms: _71  and  _74
REMARK   26  A    between atoms: _74  and  _75
REMARK   27  A    between atoms: _80  and  _82
REMARK   28  A    between atoms: _82  and  _83
REMARK   29  A    between atoms: _86  and  _88
REMARK   30  A    between atoms: _88  and  _89
REMARK   31  A    between atoms: _88  and  _91
REMARK   32  A    between atoms: _91  and  _92
REMARK   33  A    between atoms: _97  and  _99
REMARK   34  A    between atoms: _99  and  _100
REMARK   35  A    between atoms: _99  and  _102
REMARK   36  A    between atoms: _102  and  _103
REMARK   37  A    between atoms: _106  and  _108
REMARK   38  A    between atoms: _108  and  _109
REMARK   39  A    between atoms: _108  and  _111
REMARK   40  A    between atoms: _111  and  _112
REMARK   41  A    between atoms: _112  and  _113
REMARK   42  A    between atoms: _118  and  _120
REMARK   43  A    between atoms: _120  and  _121
REMARK   44  A    between atoms: _120  and  _123
REMARK   45  A    between atoms: _123  and  _124
REMARK   46  A    between atoms: _130  and  _132
REMARK   47  A    between atoms: _143  and  _146
REMARK   48  A    between atoms: _146  and  _147
REMARK   49  A    between atoms: _155  and  _156
REMARK   50  A    between atoms: _164  and  _166
REMARK   51  A    between atoms: _166  and  _167
REMARK   52  A    between atoms: _166  and  _169
REMARK   53  A    between atoms: _169  and  _170
REMARK   54  A    between atoms: _170  and  _171
REMARK   55  A    between atoms: _174  and  _176
REMARK   56  A    between atoms: _176  and  _177
REMARK   57  A    between atoms: _176  and  _179
REMARK   58  A    between atoms: _179  and  _180
REMARK   59  A    between atoms: _185  and  _187
REMARK   60  A    between atoms: _187  and  _188
REMARK   61  A    between atoms: _187  and  _190
REMARK   62  A    between atoms: _190  and  _191
REMARK   63  A    between atoms: _191  and  _192
REMARK   64  A    between atoms: _195  and  _197
REMARK   65  A    between atoms: _197  and  _198
REMARK   66  A    between atoms: _197  and  _200
REMARK   67  A    between atoms: _200  and  _201
REMARK   68  A    between atoms: _204  and  _206
REMARK   69  A    between atoms: _206  and  _207
REMARK   70  A    between atoms: _206  and  _209
REMARK   71  A    between atoms: _209  and  _210
REMARK   72  A    between atoms: _211  and  ZN_443
REMARK   73  A    between atoms: _215  and  _217
REMARK   74  A    between atoms: _217  and  _218
REMARK   75  A    between atoms: _217  and  _220
REMARK   76  A    between atoms: _220  and  _221
REMARK   77  A    between atoms: _224  and  _226
REMARK   78  A    between atoms: _226  and  _227
REMARK   79  A    between atoms: _226  and  _229
REMARK   80  A    between atoms: _232  and  _234
REMARK   81  A    between atoms: _234  and  _235
REMARK   82  A    between atoms: _234  and  _237
REMARK   83  A    between atoms: _237  and  _238
REMARK   84  A    between atoms: _243  and  _245
REMARK   85  A    between atoms: _245  and  _246
REMARK   86  A    between atoms: _245  and  _248
REMARK   87  A    between atoms: _248  and  _249
REMARK   88  A    between atoms: _255  and  _257
REMARK   89  A    between atoms: _257  and  _258
REMARK   90  A    between atoms: _260  and  _262
REMARK   91  A    between atoms: _262  and  _263
REMARK   92  A    between atoms: _262  and  _265
REMARK   93  A    between atoms: _268  and  _270
REMARK   94  A    between atoms: _270  and  _271
REMARK   95  A    between atoms: _270  and  _273
REMARK   96  A    between atoms: _273  and  _274
REMARK   97  A    between atoms: _274  and  _275
REMARK   98  A    between atoms: _280  and  _282
REMARK   99  A    between atoms: _282  and  _283
REMARK  100  A    between atoms: _282  and  _285
REMARK  101  A    between atoms: _285  and  _286
REMARK  102  A    between atoms: _289  and  _291
REMARK  103  A    between atoms: _291  and  _292
REMARK  104  A    between atoms: _295  and  _297
REMARK  105  A    between atoms: _297  and  _298
REMARK  106  A    between atoms: _297  and  _300
REMARK  107  A    between atoms: _303  and  _305
REMARK  108  A    between atoms: _305  and  _306
REMARK  109  A    between atoms: _305  and  _308
REMARK  110  A    between atoms: _308  and  _309
REMARK  111  A    between atoms: _312  and  _314
REMARK  112  A    between atoms: _314  and  _315
REMARK  113  A    between atoms: _317  and  _319
REMARK  114  A    between atoms: _319  and  _320
REMARK  115  A    between atoms: _319  and  _322
REMARK  116  A    between atoms: _322  and  _323
REMARK  117  A    between atoms: _325  and  _327
REMARK  118  A    between atoms: _327  and  _328
REMARK  119  A    between atoms: _327  and  _330
REMARK  120  A    between atoms: _330  and  _331
REMARK  121  A    between atoms: _334  and  _336
REMARK  122  A    between atoms: _336  and  _337
REMARK  123  A    between atoms: _336  and  _339
REMARK  124  A    between atoms: _339  and  _340
REMARK  125  A    between atoms: _343  and  _345
REMARK  126  A    between atoms: _345  and  _346
REMARK  127  A    between atoms: _345  and  _348
REMARK  128  A    between atoms: _348  and  _349
REMARK  129  A    between atoms: _353  and  _354
REMARK  130  A    between atoms: _360  and  _361
REMARK  131  A    between atoms: _366  and  _368
REMARK  132  A    between atoms: _368  and  _369
REMARK  133  A    between atoms: _368  and  _371
REMARK  134  A    between atoms: _371  and  _372
REMARK  135  A    between atoms: _375  and  _377
REMARK  136  A    between atoms: _377  and  _378
REMARK  137  A    between atoms: _377  and  _380
REMARK  138  A    between atoms: _380  and  _381
REMARK  139  A    between atoms: _384  and  _386
REMARK  140  A    between atoms: _386  and  _387
REMARK  141  A    between atoms: _386  and  _389
REMARK  142  A    between atoms: _391  and  _393
REMARK  143  A    between atoms: _393  and  _394
REMARK  144  A    between atoms: _393  and  _396
REMARK  145  A    between atoms: _399  and  _401
REMARK  146  A    between atoms: _401  and  _402
REMARK  147  A    between atoms: _401  and  _404
REMARK  148  A    between atoms: _404  and  _405
REMARK  149  A    between atoms: _415  and  _417
REMARK  150  A    between atoms: _417  and  _418
REMARK  151  A    between atoms: _417  and  _420
REMARK  152  A    between atoms: _420  and  _421
REMARK  153  A    between atoms: _426  and  _428
REMARK  154  A    between atoms: _428  and  _429
REMARK  155  A    between atoms: _428  and  _431
REMARK  156  A    between atoms: _431  and  _432
REMARK  157  A    between atoms: _432  and  _433
REMARK  158  A    between atoms: _433  and  _434
REMARK                            x       y       z     vdW  Elec       q    Type
REMARK                         _______ _______ _______ _____ _____    ______ ____
ROOT
ATOM      1  O   HOH     1      20.267   3.578  10.448  0.00  0.00    +0.000 OA
ENDROOT
TORSDOF 0
REMARK  Name = ../refined-set-2016/3r17/3r17_pocket.pdb
REMARK  158 active torsions:
REMARK  status: ('A' for Active; 'I' for Inactive)
REMARK    1  A    between atoms: _1  and  _3
REMARK    2  A    between atoms: _3  and  _4
REMARK    3  A    between atoms: _3  and  _6
REMARK    4  A    between atoms: _6  and  _7
REMARK    5  A    between atoms: _17  and  _19
REMARK    6  A    between atoms: _19  and  _20
REMARK    7  A    between atoms: _19  and  _22
REMARK    8  A    between atoms: _22  and  _23
REMARK    9  A    between atoms: _28  and  _29
REMARK   10  A    between atoms: _31  and  _33
REMARK   11  A    between atoms: _33  and  _34
REMARK   12  A    between atoms: _33  and  _36
REMARK   13  A    between atoms: _36  and  _37
REMARK   14  A    between atoms: _43  and  _45
REMARK   15  A    between atoms: _45  and  _46
REMARK   16  A    between atoms: _45  and  _48
REMARK   17  A    between atoms: _48  and  _49
REMARK   18  A    between atoms: _52  and  _53
REMARK   19  A    between atoms: _58  and  _60
REMARK   20  A    between atoms: _60  and  _61
REMARK   21  A    between atoms: _60  and  _63
REMARK   22  A    between atoms: _63  and  _64
REMARK   23  A    between atoms: _69  and  _71
REMARK   24  A    between atoms: _71  and  _72
REMARK   25  A    between atoms: _71  and  _74
REMARK   26  A    between atoms: _74  and  _75
REMARK   27  A    between atoms: _80  and  _82
REMARK   28  A    between atoms: _82  and  _83
REMARK   29  A    between atoms: _86  and  _88
REMARK   30  A    between atoms: _88  and  _89
REMARK   31  A    between atoms: _88  and  _91
REMARK   32  A    between atoms: _91  and  _92
REMARK   33  A    between atoms: _97  and  _99
REMARK   34  A    between atoms: _99  and  _100
REMARK   35  A    between atoms: _99  and  _102
REMARK   36  A    between atoms: _102  and  _103
REMARK   37  A    between atoms: _106  and  _108
REMARK   38  A    between atoms: _108  and  _109
REMARK   39  A    between atoms: _108  and  _111
REMARK   40  A    between atoms: _111  and  _112
REMARK   41  A    between atoms: _112  and  _113
REMARK   42  A    between atoms: _118  and  _120
REMARK   43  A    between atoms: _120  and  _121
REMARK   44  A    between atoms: _120  and  _123
REMARK   45  A    between atoms: _123  and  _124
REMARK   46  A    between atoms: _130  and  _132
REMARK   47  A    between atoms: _143  and  _146
REMARK   48  A    between atoms: _146  and  _147
REMARK   49  A    between atoms: _155  and  _156
REMARK   50  A    between atoms: _164  and  _166
REMARK   51  A    between atoms: _166  and  _167
REMARK   52  A    between atoms: _166  and  _169
REMARK   53  A    between atoms: _169  and  _170
REMARK   54  A    between atoms: _170  and  _171
REMARK   55  A    between atoms: _174  and  _176
REMARK   56  A    between atoms: _176  and  _177
REMARK   57  A    between atoms: _176  and  _179
REMARK   58  A    between atoms: _179  and  _180
REMARK   59  A    between atoms: _185  and  _187
REMARK   60  A    between atoms: _187  and  _188
REMARK   61  A    between atoms: _187  and  _190
REMARK   62  A    between atoms: _190  and  _191
REMARK   63  A    between atoms: _191  and  _192
REMARK   64  A    between atoms: _195  and  _197
REMARK   65  A    between atoms: _197  and  _198
REMARK   66  A    between atoms: _197  and  _200
REMARK   67  A    between atoms: _200  and  _201
REMARK   68  A    between atoms: _204  and  _206
REMARK   69  A    between atoms: _206  and  _207
REMARK   70  A    between atoms: _206  and  _209
REMARK   71  A    between atoms: _209  and  _210
REMARK   72  A    between atoms: _211  and  ZN_443
REMARK   73  A    between atoms: _215  and  _217
REMARK   74  A    between atoms: _217  and  _218
REMARK   75  A    between atoms: _217  and  _220
REMARK   76  A    between atoms: _220  and  _221
REMARK   77  A    between atoms: _224  and  _226
REMARK   78  A    between atoms: _226  and  _227
REMARK   79  A    between atoms: _226  and  _229
REMARK   80  A    between atoms: _232  and  _234
REMARK   81  A    between atoms: _234  and  _235
REMARK   82  A    between atoms: _234  and  _237
REMARK   83  A    between atoms: _237  and  _238
REMARK   84  A    between atoms: _243  and  _245
REMARK   85  A    between atoms: _245  and  _246
REMARK   86  A    between atoms: _245  and  _248
REMARK   87  A    between atoms: _248  and  _249
REMARK   88  A    between atoms: _255  and  _257
REMARK   89  A    between atoms: _257  and  _258
REMARK   90  A    between atoms: _260  and  _262
REMARK   91  A    between atoms: _262  and  _263
REMARK   92  A    between atoms: _262  and  _265
REMARK   93  A    between atoms: _268  and  _270
REMARK   94  A    between atoms: _270  and  _271
REMARK   95  A    between atoms: _270  and  _273
REMARK   96  A    between atoms: _273  and  _274
REMARK   97  A    between atoms: _274  and  _275
REMARK   98  A    between atoms: _280  and  _282
REMARK   99  A    between atoms: _282  and  _283
REMARK  100  A    between atoms: _282  and  _285
REMARK  101  A    between atoms: _285  and  _286
REMARK  102  A    between atoms: _289  and  _291
REMARK  103  A    between atoms: _291  and  _292
REMARK  104  A    between atoms: _295  and  _297
REMARK  105  A    between atoms: _297  and  _298
REMARK  106  A    between atoms: _297  and  _300
REMARK  107  A    between atoms: _303  and  _305
REMARK  108  A    between atoms: _305  and  _306
REMARK  109  A    between atoms: _305  and  _308
REMARK  110  A    between atoms: _308  and  _309
REMARK  111  A    between atoms: _312  and  _314
REMARK  112  A    between atoms: _314  and  _315
REMARK  113  A    between atoms: _317  and  _319
REMARK  114  A    between atoms: _319  and  _320
REMARK  115  A    between atoms: _319  and  _322
REMARK  116  A    between atoms: _322  and  _323
REMARK  117  A    between atoms: _325  and  _327
REMARK  118  A    between atoms: _327  and  _328
REMARK  119  A    between atoms: _327  and  _330
REMARK  120  A    between atoms: _330  and  _331
REMARK  121  A    between atoms: _334  and  _336
REMARK  122  A    between atoms: _336  and  _337
REMARK  123  A    between atoms: _336  and  _339
REMARK  124  A    between atoms: _339  and  _340
REMARK  125  A    between atoms: _343  and  _345
REMARK  126  A    between atoms: _345  and  _346
REMARK  127  A    between atoms: _345  and  _348
REMARK  128  A    between atoms: _348  and  _349
REMARK  129  A    between atoms: _353  and  _354
REMARK  130  A    between atoms: _360  and  _361
REMARK  131  A    between atoms: _366  and  _368
REMARK  132  A    between atoms: _368  and  _369
REMARK  133  A    between atoms: _368  and  _371
REMARK  134  A    between atoms: _371  and  _372
REMARK  135  A    between atoms: _375  and  _377
REMARK  136  A    between atoms: _377  and  _378
REMARK  137  A    between atoms: _377  and  _380
REMARK  138  A    between atoms: _380  and  _381
REMARK  139  A    between atoms: _384  and  _386
REMARK  140  A    between atoms: _386  and  _387
REMARK  141  A    between atoms: _386  and  _389
REMARK  142  A    between atoms: _391  and  _393
REMARK  143  A    between atoms: _393  and  _394
REMARK  144  A    between atoms: _393  and  _396
REMARK  145  A    between atoms: _399  and  _401
REMARK  146  A    between atoms: _401  and  _402
REMARK  147  A    between atoms: _401  and  _404
REMARK  148  A    between atoms: _404  and  _405
REMARK  149  A    between atoms: _415  and  _417
REMARK  150  A    between atoms: _417  and  _418
REMARK  151  A    between atoms: _417  and  _420
REMARK  152  A    between atoms: _420  and  _421
REMARK  153  A    between atoms: _426  and  _428
REMARK  154  A    between atoms: _428  and  _429
REMARK  155  A    between atoms: _428  and  _431
REMARK  156  A    between atoms: _431  and  _432
REMARK  157  A    between atoms: _432  and  _433
REMARK  158  A    between atoms: _433  and  _434
REMARK                            x       y       z     vdW  Elec       q    Type
REMARK                         _______ _______ _______ _____ _____    ______ ____
ROOT
ATOM      1  O   HOH     1      22.161   4.519  12.299  0.00  0.00    +0.000 OA
ENDROOT
TORSDOF 0
REMARK  Name = ../refined-set-2016/3r17/3r17_pocket.pdb
REMARK  158 active torsions:
REMARK  status: ('A' for Active; 'I' for Inactive)
REMARK    1  A    between atoms: _1  and  _3
REMARK    2  A    between atoms: _3  and  _4
REMARK    3  A    between atoms: _3  and  _6
REMARK    4  A    between atoms: _6  and  _7
REMARK    5  A    between atoms: _17  and  _19
REMARK    6  A    between atoms: _19  and  _20
REMARK    7  A    between atoms: _19  and  _22
REMARK    8  A    between atoms: _22  and  _23
REMARK    9  A    between atoms: _28  and  _29
REMARK   10  A    between atoms: _31  and  _33
REMARK   11  A    between atoms: _33  and  _34
REMARK   12  A    between atoms: _33  and  _36
REMARK   13  A    between atoms: _36  and  _37
REMARK   14  A    between atoms: _43  and  _45
REMARK   15  A    between atoms: _45  and  _46
REMARK   16  A    between atoms: _45  and  _48
REMARK   17  A    between atoms: _48  and  _49
REMARK   18  A    between atoms: _52  and  _53
REMARK   19  A    between atoms: _58  and  _60
REMARK   20  A    between atoms: _60  and  _61
REMARK   21  A    between atoms: _60  and  _63
REMARK   22  A    between atoms: _63  and  _64
REMARK   23  A    between atoms: _69  and  _71
REMARK   24  A    between atoms: _71  and  _72
REMARK   25  A    between atoms: _71  and  _74
REMARK   26  A    between atoms: _74  and  _75
REMARK   27  A    between atoms: _80  and  _82
REMARK   28  A    between atoms: _82  and  _83
REMARK   29  A    between atoms: _86  and  _88
REMARK   30  A    between atoms: _88  and  _89
REMARK   31  A    between atoms: _88  and  _91
REMARK   32  A    between atoms: _91  and  _92
REMARK   33  A    between atoms: _97  and  _99
REMARK   34  A    between atoms: _99  and  _100
REMARK   35  A    between atoms: _99  and  _102
REMARK   36  A    between atoms: _102  and  _103
REMARK   37  A    between atoms: _106  and  _108
REMARK   38  A    between atoms: _108  and  _109
REMARK   39  A    between atoms: _108  and  _111
REMARK   40  A    between atoms: _111  and  _112
REMARK   41  A    between atoms: _112  and  _113
REMARK   42  A    between atoms: _118  and  _120
REMARK   43  A    between atoms: _120  and  _121
REMARK   44  A    between atoms: _120  and  _123
REMARK   45  A    between atoms: _123  and  _124
REMARK   46  A    between atoms: _130  and  _132
REMARK   47  A    between atoms: _143  and  _146
REMARK   48  A    between atoms: _146  and  _147
REMARK   49  A    between atoms: _155  and  _156
REMARK   50  A    between atoms: _164  and  _166
REMARK   51  A    between atoms: _166  and  _167
REMARK   52  A    between atoms: _166  and  _169
REMARK   53  A    between atoms: _169  and  _170
REMARK   54  A    between atoms: _170  and  _171
REMARK   55  A    between atoms: _174  and  _176
REMARK   56  A    between atoms: _176  and  _177
REMARK   57  A    between atoms: _176  and  _179
REMARK   58  A    between atoms: _179  and  _180
REMARK   59  A    between atoms: _185  and  _187
REMARK   60  A    between atoms: _187  and  _188
REMARK   61  A    between atoms: _187  and  _190
REMARK   62  A    between atoms: _190  and  _191
REMARK   63  A    between atoms: _191  and  _192
REMARK   64  A    between atoms: _195  and  _197
REMARK   65  A    between atoms: _197  and  _198
REMARK   66  A    between atoms: _197  and  _200
REMARK   67  A    between atoms: _200  and  _201
REMARK   68  A    between atoms: _204  and  _206
REMARK   69  A    between atoms: _206  and  _207
REMARK   70  A    between atoms: _206  and  _209
REMARK   71  A    between atoms: _209  and  _210
REMARK   72  A    between atoms: _211  and  ZN_443
REMARK   73  A    between atoms: _215  and  _217
REMARK   74  A    between atoms: _217  and  _218
REMARK   75  A    between atoms: _217  and  _220
REMARK   76  A    between atoms: _220  and  _221
REMARK   77  A    between atoms: _224  and  _226
REMARK   78  A    between atoms: _226  and  _227
REMARK   79  A    between atoms: _226  and  _229
REMARK   80  A    between atoms: _232  and  _234
REMARK   81  A    between atoms: _234  and  _235
REMARK   82  A    between atoms: _234  and  _237
REMARK   83  A    between atoms: _237  and  _238
REMARK   84  A    between atoms: _243  and  _245
REMARK   85  A    between atoms: _245  and  _246
REMARK   86  A    between atoms: _245  and  _248
REMARK   87  A    between atoms: _248  and  _249
REMARK   88  A    between atoms: _255  and  _257
REMARK   89  A    between atoms: _257  and  _258
REMARK   90  A    between atoms: _260  and  _262
REMARK   91  A    between atoms: _262  and  _263
REMARK   92  A    between atoms: _262  and  _265
REMARK   93  A    between atoms: _268  and  _270
REMARK   94  A    between atoms: _270  and  _271
REMARK   95  A    between atoms: _270  and  _273
REMARK   96  A    between atoms: _273  and  _274
REMARK   97  A    between atoms: _274  and  _275
REMARK   98  A    between atoms: _280  and  _282
REMARK   99  A    between atoms: _282  and  _283
REMARK  100  A    between atoms: _282  and  _285
REMARK  101  A    between atoms: _285  and  _286
REMARK  102  A    between atoms: _289  and  _291
REMARK  103  A    between atoms: _291  and  _292
REMARK  104  A    between atoms: _295  and  _297
REMARK  105  A    between atoms: _297  and  _298
REMARK  106  A    between atoms: _297  and  _300
REMARK  107  A    between atoms: _303  and  _305
REMARK  108  A    between atoms: _305  and  _306
REMARK  109  A    between atoms: _305  and  _308
REMARK  110  A    between atoms: _308  and  _309
REMARK  111  A    between atoms: _312  and  _314
REMARK  112  A    between atoms: _314  and  _315
REMARK  113  A    between atoms: _317  and  _319
REMARK  114  A    between atoms: _319  and  _320
REMARK  115  A    between atoms: _319  and  _322
REMARK  116  A    between atoms: _322  and  _323
REMARK  117  A    between atoms: _325  and  _327
REMARK  118  A    between atoms: _327  and  _328
REMARK  119  A    between atoms: _327  and  _330
REMARK  120  A    between atoms: _330  and  _331
REMARK  121  A    between atoms: _334  and  _336
REMARK  122  A    between atoms: _336  and  _337
REMARK  123  A    between atoms: _336  and  _339
REMARK  124  A    between atoms: _339  and  _340
REMARK  125  A    between atoms: _343  and  _345
REMARK  126  A    between atoms: _345  and  _346
REMARK  127  A    between atoms: _345  and  _348
REMARK  128  A    between atoms: _348  and  _349
REMARK  129  A    between atoms: _353  and  _354
REMARK  130  A    between atoms: _360  and  _361
REMARK  131  A    between atoms: _366  and  _368
REMARK  132  A    between atoms: _368  and  _369
REMARK  133  A    between atoms: _368  and  _371
REMARK  134  A    between atoms: _371  and  _372
REMARK  135  A    between atoms: _375  and  _377
REMARK  136  A    between atoms: _377  and  _378
REMARK  137  A    between atoms: _377  and  _380
REMARK  138  A    between atoms: _380  and  _381
REMARK  139  A    between atoms: _384  and  _386
REMARK  140  A    between atoms: _386  and  _387
REMARK  141  A    between atoms: _386  and  _389
REMARK  142  A    between atoms: _391  and  _393
REMARK  143  A    between atoms: _393  and  _394
REMARK  144  A    between atoms: _393  and  _396
REMARK  145  A    between atoms: _399  and  _401
REMARK  146  A    between atoms: _401  and  _402
REMARK  147  A    between atoms: _401  and  _404
REMARK  148  A    between atoms: _404  and  _405
REMARK  149  A    between atoms: _415  and  _417
REMARK  150  A    between atoms: _417  and  _418
REMARK  151  A    between atoms: _417  and  _420
REMARK  152  A    between atoms: _420  and  _421
REMARK  153  A    between atoms: _426  and  _428
REMARK  154  A    between atoms: _428  and  _429
REMARK  155  A    between atoms: _428  and  _431
REMARK  156  A    between atoms: _431  and  _432
REMARK  157  A    between atoms: _432  and  _433
REMARK  158  A    between atoms: _433  and  _434
REMARK                            x       y       z     vdW  Elec       q    Type
REMARK                         _______ _______ _______ _____ _____    ______ ____
ROOT
ATOM      1  O   HOH     1      20.742  13.755  16.212  0.00  0.00    +0.000 OA
ENDROOT
TORSDOF 0
REMARK  Name = ../refined-set-2016/3r17/3r17_pocket.pdb
REMARK  158 active torsions:
REMARK  status: ('A' for Active; 'I' for Inactive)
REMARK    1  A    between atoms: _1  and  _3
REMARK    2  A    between atoms: _3  and  _4
REMARK    3  A    between atoms: _3  and  _6
REMARK    4  A    between atoms: _6  and  _7
REMARK    5  A    between atoms: _17  and  _19
REMARK    6  A    between atoms: _19  and  _20
REMARK    7  A    between atoms: _19  and  _22
REMARK    8  A    between atoms: _22  and  _23
REMARK    9  A    between atoms: _28  and  _29
REMARK   10  A    between atoms: _31  and  _33
REMARK   11  A    between atoms: _33  and  _34
REMARK   12  A    between atoms: _33  and  _36
REMARK   13  A    between atoms: _36  and  _37
REMARK   14  A    between atoms: _43  and  _45
REMARK   15  A    between atoms: _45  and  _46
REMARK   16  A    between atoms: _45  and  _48
REMARK   17  A    between atoms: _48  and  _49
REMARK   18  A    between atoms: _52  and  _53
REMARK   19  A    between atoms: _58  and  _60
REMARK   20  A    between atoms: _60  and  _61
REMARK   21  A    between atoms: _60  and  _63
REMARK   22  A    between atoms: _63  and  _64
REMARK   23  A    between atoms: _69  and  _71
REMARK   24  A    between atoms: _71  and  _72
REMARK   25  A    between atoms: _71  and  _74
REMARK   26  A    between atoms: _74  and  _75
REMARK   27  A    between atoms: _80  and  _82
REMARK   28  A    between atoms: _82  and  _83
REMARK   29  A    between atoms: _86  and  _88
REMARK   30  A    between atoms: _88  and  _89
REMARK   31  A    between atoms: _88  and  _91
REMARK   32  A    between atoms: _91  and  _92
REMARK   33  A    between atoms: _97  and  _99
REMARK   34  A    between atoms: _99  and  _100
REMARK   35  A    between atoms: _99  and  _102
REMARK   36  A    between atoms: _102  and  _103
REMARK   37  A    between atoms: _106  and  _108
REMARK   38  A    between atoms: _108  and  _109
REMARK   39  A    between atoms: _108  and  _111
REMARK   40  A    between atoms: _111  and  _112
REMARK   41  A    between atoms: _112  and  _113
REMARK   42  A    between atoms: _118  and  _120
REMARK   43  A    between atoms: _120  and  _121
REMARK   44  A    between atoms: _120  and  _123
REMARK   45  A    between atoms: _123  and  _124
REMARK   46  A    between atoms: _130  and  _132
REMARK   47  A    between atoms: _143  and  _146
REMARK   48  A    between atoms: _146  and  _147
REMARK   49  A    between atoms: _155  and  _156
REMARK   50  A    between atoms: _164  and  _166
REMARK   51  A    between atoms: _166  and  _167
REMARK   52  A    between atoms: _166  and  _169
REMARK   53  A    between atoms: _169  and  _170
REMARK   54  A    between atoms: _170  and  _171
REMARK   55  A    between atoms: _174  and  _176
REMARK   56  A    between atoms: _176  and  _177
REMARK   57  A    between atoms: _176  and  _179
REMARK   58  A    between atoms: _179  and  _180
REMARK   59  A    between atoms: _185  and  _187
REMARK   60  A    between atoms: _187  and  _188
REMARK   61  A    between atoms: _187  and  _190
REMARK   62  A    between atoms: _190  and  _191
REMARK   63  A    between atoms: _191  and  _192
REMARK   64  A    between atoms: _195  and  _197
REMARK   65  A    between atoms: _197  and  _198
REMARK   66  A    between atoms: _197  and  _200
REMARK   67  A    between atoms: _200  and  _201
REMARK   68  A    between atoms: _204  and  _206
REMARK   69  A    between atoms: _206  and  _207
REMARK   70  A    between atoms: _206  and  _209
REMARK   71  A    between atoms: _209  and  _210
REMARK   72  A    between atoms: _211  and  ZN_443
REMARK   73  A    between atoms: _215  and  _217
REMARK   74  A    between atoms: _217  and  _218
REMARK   75  A    between atoms: _217  and  _220
REMARK   76  A    between atoms: _220  and  _221
REMARK   77  A    between atoms: _224  and  _226
REMARK   78  A    between atoms: _226  and  _227
REMARK   79  A    between atoms: _226  and  _229
REMARK   80  A    between atoms: _232  and  _234
REMARK   81  A    between atoms: _234  and  _235
REMARK   82  A    between atoms: _234  and  _237
REMARK   83  A    between atoms: _237  and  _238
REMARK   84  A    between atoms: _243  and  _245
REMARK   85  A    between atoms: _245  and  _246
REMARK   86  A    between atoms: _245  and  _248
REMARK   87  A    between atoms: _248  and  _249
REMARK   88  A    between atoms: _255  and  _257
REMARK   89  A    between atoms: _257  and  _258
REMARK   90  A    between atoms: _260  and  _262
REMARK   91  A    between atoms: _262  and  _263
REMARK   92  A    between atoms: _262  and  _265
REMARK   93  A    between atoms: _268  and  _270
REMARK   94  A    between atoms: _270  and  _271
REMARK   95  A    between atoms: _270  and  _273
REMARK   96  A    between atoms: _273  and  _274
REMARK   97  A    between atoms: _274  and  _275
REMARK   98  A    between atoms: _280  and  _282
REMARK   99  A    between atoms: _282  and  _283
REMARK  100  A    between atoms: _282  and  _285
REMARK  101  A    between atoms: _285  and  _286
REMARK  102  A    between atoms: _289  and  _291
REMARK  103  A    between atoms: _291  and  _292
REMARK  104  A    between atoms: _295  and  _297
REMARK  105  A    between atoms: _297  and  _298
REMARK  106  A    between atoms: _297  and  _300
REMARK  107  A    between atoms: _303  and  _305
REMARK  108  A    between atoms: _305  and  _306
REMARK  109  A    between atoms: _305  and  _308
REMARK  110  A    between atoms: _308  and  _309
REMARK  111  A    between atoms: _312  and  _314
REMARK  112  A    between atoms: _314  and  _315
REMARK  113  A    between atoms: _317  and  _319
REMARK  114  A    between atoms: _319  and  _320
REMARK  115  A    between atoms: _319  and  _322
REMARK  116  A    between atoms: _322  and  _323
REMARK  117  A    between atoms: _325  and  _327
REMARK  118  A    between atoms: _327  and  _328
REMARK  119  A    between atoms: _327  and  _330
REMARK  120  A    between atoms: _330  and  _331
REMARK  121  A    between atoms: _334  and  _336
REMARK  122  A    between atoms: _336  and  _337
REMARK  123  A    between atoms: _336  and  _339
REMARK  124  A    between atoms: _339  and  _340
REMARK  125  A    between atoms: _343  and  _345
REMARK  126  A    between atoms: _345  and  _346
REMARK  127  A    between atoms: _345  and  _348
REMARK  128  A    between atoms: _348  and  _349
REMARK  129  A    between atoms: _353  and  _354
REMARK  130  A    between atoms: _360  and  _361
REMARK  131  A    between atoms: _366  and  _368
REMARK  132  A    between atoms: _368  and  _369
REMARK  133  A    between atoms: _368  and  _371
REMARK  134  A    between atoms: _371  and  _372
REMARK  135  A    between atoms: _375  and  _377
REMARK  136  A    between atoms: _377  and  _378
REMARK  137  A    between atoms: _377  and  _380
REMARK  138  A    between atoms: _380  and  _381
REMARK  139  A    between atoms: _384  and  _386
REMARK  140  A    between atoms: _386  and  _387
REMARK  141  A    between atoms: _386  and  _389
REMARK  142  A    between atoms: _391  and  _393
REMARK  143  A    between atoms: _393  and  _394
REMARK  144  A    between atoms: _393  and  _396
REMARK  145  A    between atoms: _399  and  _401
REMARK  146  A    between atoms: _401  and  _402
REMARK  147  A    between atoms: _401  and  _404
REMARK  148  A    between atoms: _404  and  _405
REMARK  149  A    between atoms: _415  and  _417
REMARK  150  A    between atoms: _417  and  _418
REMARK  151  A    between atoms: _417  and  _420
REMARK  152  A    between atoms: _420  and  _421
REMARK  153  A    between atoms: _426  and  _428
REMARK  154  A    between atoms: _428  and  _429
REMARK  155  A    between atoms: _428  and  _431
REMARK  156  A    between atoms: _431  and  _432
REMARK  157  A    between atoms: _432  and  _433
REMARK  158  A    between atoms: _433  and  _434
REMARK                            x       y       z     vdW  Elec       q    Type
REMARK                         _______ _______ _______ _____ _____    ______ ____
ROOT
ATOM      1  O   HOH     1      22.833  12.032  16.991  0.00  0.00    +0.000 OA
ENDROOT
TORSDOF 0
REMARK  Name = ../refined-set-2016/3r17/3r17_pocket.pdb
REMARK  158 active torsions:
REMARK  status: ('A' for Active; 'I' for Inactive)
REMARK    1  A    between atoms: _1  and  _3
REMARK    2  A    between atoms: _3  and  _4
REMARK    3  A    between atoms: _3  and  _6
REMARK    4  A    between atoms: _6  and  _7
REMARK    5  A    between atoms: _17  and  _19
REMARK    6  A    between atoms: _19  and  _20
REMARK    7  A    between atoms: _19  and  _22
REMARK    8  A    between atoms: _22  and  _23
REMARK    9  A    between atoms: _28  and  _29
REMARK   10  A    between atoms: _31  and  _33
REMARK   11  A    between atoms: _33  and  _34
REMARK   12  A    between atoms: _33  and  _36
REMARK   13  A    between atoms: _36  and  _37
REMARK   14  A    between atoms: _43  and  _45
REMARK   15  A    between atoms: _45  and  _46
REMARK   16  A    between atoms: _45  and  _48
REMARK   17  A    between atoms: _48  and  _49
REMARK   18  A    between atoms: _52  and  _53
REMARK   19  A    between atoms: _58  and  _60
REMARK   20  A    between atoms: _60  and  _61
REMARK   21  A    between atoms: _60  and  _63
REMARK   22  A    between atoms: _63  and  _64
REMARK   23  A    between atoms: _69  and  _71
REMARK   24  A    between atoms: _71  and  _72
REMARK   25  A    between atoms: _71  and  _74
REMARK   26  A    between atoms: _74  and  _75
REMARK   27  A    between atoms: _80  and  _82
REMARK   28  A    between atoms: _82  and  _83
REMARK   29  A    between atoms: _86  and  _88
REMARK   30  A    between atoms: _88  and  _89
REMARK   31  A    between atoms: _88  and  _91
REMARK   32  A    between atoms: _91  and  _92
REMARK   33  A    between atoms: _97  and  _99
REMARK   34  A    between atoms: _99  and  _100
REMARK   35  A    between atoms: _99  and  _102
REMARK   36  A    between atoms: _102  and  _103
REMARK   37  A    between atoms: _106  and  _108
REMARK   38  A    between atoms: _108  and  _109
REMARK   39  A    between atoms: _108  and  _111
REMARK   40  A    between atoms: _111  and  _112
REMARK   41  A    between atoms: _112  and  _113
REMARK   42  A    between atoms: _118  and  _120
REMARK   43  A    between atoms: _120  and  _121
REMARK   44  A    between atoms: _120  and  _123
REMARK   45  A    between atoms: _123  and  _124
REMARK   46  A    between atoms: _130  and  _132
REMARK   47  A    between atoms: _143  and  _146
REMARK   48  A    between atoms: _146  and  _147
REMARK   49  A    between atoms: _155  and  _156
REMARK   50  A    between atoms: _164  and  _166
REMARK   51  A    between atoms: _166  and  _167
REMARK   52  A    between atoms: _166  and  _169
REMARK   53  A    between atoms: _169  and  _170
REMARK   54  A    between atoms: _170  and  _171
REMARK   55  A    between atoms: _174  and  _176
REMARK   56  A    between atoms: _176  and  _177
REMARK   57  A    between atoms: _176  and  _179
REMARK   58  A    between atoms: _179  and  _180
REMARK   59  A    between atoms: _185  and  _187
REMARK   60  A    between atoms: _187  and  _188
REMARK   61  A    between atoms: _187  and  _190
REMARK   62  A    between atoms: _190  and  _191
REMARK   63  A    between atoms: _191  and  _192
REMARK   64  A    between atoms: _195  and  _197
REMARK   65  A    between atoms: _197  and  _198
REMARK   66  A    between atoms: _197  and  _200
REMARK   67  A    between atoms: _200  and  _201
REMARK   68  A    between atoms: _204  and  _206
REMARK   69  A    between atoms: _206  and  _207
REMARK   70  A    between atoms: _206  and  _209
REMARK   71  A    between atoms: _209  and  _210
REMARK   72  A    between atoms: _211  and  ZN_443
REMARK   73  A    between atoms: _215  and  _217
REMARK   74  A    between atoms: _217  and  _218
REMARK   75  A    between atoms: _217  and  _220
REMARK   76  A    between atoms: _220  and  _221
REMARK   77  A    between atoms: _224  and  _226
REMARK   78  A    between atoms: _226  and  _227
REMARK   79  A    between atoms: _226  and  _229
REMARK   80  A    between atoms: _232  and  _234
REMARK   81  A    between atoms: _234  and  _235
REMARK   82  A    between atoms: _234  and  _237
REMARK   83  A    between atoms: _237  and  _238
REMARK   84  A    between atoms: _243  and  _245
REMARK   85  A    between atoms: _245  and  _246
REMARK   86  A    between atoms: _245  and  _248
REMARK   87  A    between atoms: _248  and  _249
REMARK   88  A    between atoms: _255  and  _257
REMARK   89  A    between atoms: _257  and  _258
REMARK   90  A    between atoms: _260  and  _262
REMARK   91  A    between atoms: _262  and  _263
REMARK   92  A    between atoms: _262  and  _265
REMARK   93  A    between atoms: _268  and  _270
REMARK   94  A    between atoms: _270  and  _271
REMARK   95  A    between atoms: _270  and  _273
REMARK   96  A    between atoms: _273  and  _274
REMARK   97  A    between atoms: _274  and  _275
REMARK   98  A    between atoms: _280  and  _282
REMARK   99  A    between atoms: _282  and  _283
REMARK  100  A    between atoms: _282  and  _285
REMARK  101  A    between atoms: _285  and  _286
REMARK  102  A    between atoms: _289  and  _291
REMARK  103  A    between atoms: _291  and  _292
REMARK  104  A    between atoms: _295  and  _297
REMARK  105  A    between atoms: _297  and  _298
REMARK  106  A    between atoms: _297  and  _300
REMARK  107  A    between atoms: _303  and  _305
REMARK  108  A    between atoms: _305  and  _306
REMARK  109  A    between atoms: _305  and  _308
REMARK  110  A    between atoms: _308  and  _309
REMARK  111  A    between atoms: _312  and  _314
REMARK  112  A    between atoms: _314  and  _315
REMARK  113  A    between atoms: _317  and  _319
REMARK  114  A    between atoms: _319  and  _320
REMARK  115  A    between atoms: _319  and  _322
REMARK  116  A    between atoms: _322  and  _323
REMARK  117  A    between atoms: _325  and  _327
REMARK  118  A    between atoms: _327  and  _328
REMARK  119  A    between atoms: _327  and  _330
REMARK  120  A    between atoms: _330  and  _331
REMARK  121  A    between atoms: _334  and  _336
REMARK  122  A    between atoms: _336  and  _337
REMARK  123  A    between atoms: _336  and  _339
REMARK  124  A    between atoms: _339  and  _340
REMARK  125  A    between atoms: _343  and  _345
REMARK  126  A    between atoms: _345  and  _346
REMARK  127  A    between atoms: _345  and  _348
REMARK  128  A    between atoms: _348  and  _349
REMARK  129  A    between atoms: _353  and  _354
REMARK  130  A    between atoms: _360  and  _361
REMARK  131  A    between atoms: _366  and  _368
REMARK  132  A    between atoms: _368  and  _369
REMARK  133  A    between atoms: _368  and  _371
REMARK  134  A    between atoms: _371  and  _372
REMARK  135  A    between atoms: _375  and  _377
REMARK  136  A    between atoms: _377  and  _378
REMARK  137  A    between atoms: _377  and  _380
REMARK  138  A    between atoms: _380  and  _381
REMARK  139  A    between atoms: _384  and  _386
REMARK  140  A    between atoms: _386  and  _387
REMARK  141  A    between atoms: _386  and  _389
REMARK  142  A    between atoms: _391  and  _393
REMARK  143  A    between atoms: _393  and  _394
REMARK  144  A    between atoms: _393  and  _396
REMARK  145  A    between atoms: _399  and  _401
REMARK  146  A    between atoms: _401  and  _402
REMARK  147  A    between atoms: _401  and  _404
REMARK  148  A    between atoms: _404  and  _405
REMARK  149  A    between atoms: _415  and  _417
REMARK  150  A    between atoms: _417  and  _418
REMARK  151  A    between atoms: _417  and  _420
REMARK  152  A    between atoms: _420  and  _421
REMARK  153  A    between atoms: _426  and  _428
REMARK  154  A    between atoms: _428  and  _429
REMARK  155  A    between atoms: _428  and  _431
REMARK  156  A    between atoms: _431  and  _432
REMARK  157  A    between atoms: _432  and  _433
REMARK  158  A    between atoms: _433  and  _434
REMARK                            x       y       z     vdW  Elec       q    Type
REMARK                         _______ _______ _______ _____ _____    ______ ____
ROOT
ATOM      1  O   HOH     1      20.942   3.901   7.686  0.00  0.00    +0.000 OA
ENDROOT
TORSDOF 0
REMARK  Name = ../refined-set-2016/3r17/3r17_pocket.pdb
REMARK  158 active torsions:
REMARK  status: ('A' for Active; 'I' for Inactive)
REMARK    1  A    between atoms: _1  and  _3
REMARK    2  A    between atoms: _3  and  _4
REMARK    3  A    between atoms: _3  and  _6
REMARK    4  A    between atoms: _6  and  _7
REMARK    5  A    between atoms: _17  and  _19
REMARK    6  A    between atoms: _19  and  _20
REMARK    7  A    between atoms: _19  and  _22
REMARK    8  A    between atoms: _22  and  _23
REMARK    9  A    between atoms: _28  and  _29
REMARK   10  A    between atoms: _31  and  _33
REMARK   11  A    between atoms: _33  and  _34
REMARK   12  A    between atoms: _33  and  _36
REMARK   13  A    between atoms: _36  and  _37
REMARK   14  A    between atoms: _43  and  _45
REMARK   15  A    between atoms: _45  and  _46
REMARK   16  A    between atoms: _45  and  _48
REMARK   17  A    between atoms: _48  and  _49
REMARK   18  A    between atoms: _52  and  _53
REMARK   19  A    between atoms: _58  and  _60
REMARK   20  A    between atoms: _60  and  _61
REMARK   21  A    between atoms: _60  and  _63
REMARK   22  A    between atoms: _63  and  _64
REMARK   23  A    between atoms: _69  and  _71
REMARK   24  A    between atoms: _71  and  _72
REMARK   25  A    between atoms: _71  and  _74
REMARK   26  A    between atoms: _74  and  _75
REMARK   27  A    between atoms: _80  and  _82
REMARK   28  A    between atoms: _82  and  _83
REMARK   29  A    between atoms: _86  and  _88
REMARK   30  A    between atoms: _88  and  _89
REMARK   31  A    between atoms: _88  and  _91
REMARK   32  A    between atoms: _91  and  _92
REMARK   33  A    between atoms: _97  and  _99
REMARK   34  A    between atoms: _99  and  _100
REMARK   35  A    between atoms: _99  and  _102
REMARK   36  A    between atoms: _102  and  _103
REMARK   37  A    between atoms: _106  and  _108
REMARK   38  A    between atoms: _108  and  _109
REMARK   39  A    between atoms: _108  and  _111
REMARK   40  A    between atoms: _111  and  _112
REMARK   41  A    between atoms: _112  and  _113
REMARK   42  A    between atoms: _118  and  _120
REMARK   43  A    between atoms: _120  and  _121
REMARK   44  A    between atoms: _120  and  _123
REMARK   45  A    between atoms: _123  and  _124
REMARK   46  A    between atoms: _130  and  _132
REMARK   47  A    between atoms: _143  and  _146
REMARK   48  A    between atoms: _146  and  _147
REMARK   49  A    between atoms: _155  and  _156
REMARK   50  A    between atoms: _164  and  _166
REMARK   51  A    between atoms: _166  and  _167
REMARK   52  A    between atoms: _166  and  _169
REMARK   53  A    between atoms: _169  and  _170
REMARK   54  A    between atoms: _170  and  _171
REMARK   55  A    between atoms: _174  and  _176
REMARK   56  A    between atoms: _176  and  _177
REMARK   57  A    between atoms: _176  and  _179
REMARK   58  A    between atoms: _179  and  _180
REMARK   59  A    between atoms: _185  and  _187
REMARK   60  A    between atoms: _187  and  _188
REMARK   61  A    between atoms: _187  and  _190
REMARK   62  A    between atoms: _190  and  _191
REMARK   63  A    between atoms: _191  and  _192
REMARK   64  A    between atoms: _195  and  _197
REMARK   65  A    between atoms: _197  and  _198
REMARK   66  A    between atoms: _197  and  _200
REMARK   67  A    between atoms: _200  and  _201
REMARK   68  A    between atoms: _204  and  _206
REMARK   69  A    between atoms: _206  and  _207
REMARK   70  A    between atoms: _206  and  _209
REMARK   71  A    between atoms: _209  and  _210
REMARK   72  A    between atoms: _211  and  ZN_443
REMARK   73  A    between atoms: _215  and  _217
REMARK   74  A    between atoms: _217  and  _218
REMARK   75  A    between atoms: _217  and  _220
REMARK   76  A    between atoms: _220  and  _221
REMARK   77  A    between atoms: _224  and  _226
REMARK   78  A    between atoms: _226  and  _227
REMARK   79  A    between atoms: _226  and  _229
REMARK   80  A    between atoms: _232  and  _234
REMARK   81  A    between atoms: _234  and  _235
REMARK   82  A    between atoms: _234  and  _237
REMARK   83  A    between atoms: _237  and  _238
REMARK   84  A    between atoms: _243  and  _245
REMARK   85  A    between atoms: _245  and  _246
REMARK   86  A    between atoms: _245  and  _248
REMARK   87  A    between atoms: _248  and  _249
REMARK   88  A    between atoms: _255  and  _257
REMARK   89  A    between atoms: _257  and  _258
REMARK   90  A    between atoms: _260  and  _262
REMARK   91  A    between atoms: _262  and  _263
REMARK   92  A    between atoms: _262  and  _265
REMARK   93  A    between atoms: _268  and  _270
REMARK   94  A    between atoms: _270  and  _271
REMARK   95  A    between atoms: _270  and  _273
REMARK   96  A    between atoms: _273  and  _274
REMARK   97  A    between atoms: _274  and  _275
REMARK   98  A    between atoms: _280  and  _282
REMARK   99  A    between atoms: _282  and  _283
REMARK  100  A    between atoms: _282  and  _285
REMARK  101  A    between atoms: _285  and  _286
REMARK  102  A    between atoms: _289  and  _291
REMARK  103  A    between atoms: _291  and  _292
REMARK  104  A    between atoms: _295  and  _297
REMARK  105  A    between atoms: _297  and  _298
REMARK  106  A    between atoms: _297  and  _300
REMARK  107  A    between atoms: _303  and  _305
REMARK  108  A    between atoms: _305  and  _306
REMARK  109  A    between atoms: _305  and  _308
REMARK  110  A    between atoms: _308  and  _309
REMARK  111  A    between atoms: _312  and  _314
REMARK  112  A    between atoms: _314  and  _315
REMARK  113  A    between atoms: _317  and  _319
REMARK  114  A    between atoms: _319  and  _320
REMARK  115  A    between atoms: _319  and  _322
REMARK  116  A    between atoms: _322  and  _323
REMARK  117  A    between atoms: _325  and  _327
REMARK  118  A    between atoms: _327  and  _328
REMARK  119  A    between atoms: _327  and  _330
REMARK  120  A    between atoms: _330  and  _331
REMARK  121  A    between atoms: _334  and  _336
REMARK  122  A    between atoms: _336  and  _337
REMARK  123  A    between atoms: _336  and  _339
REMARK  124  A    between atoms: _339  and  _340
REMARK  125  A    between atoms: _343  and  _345
REMARK  126  A    between atoms: _345  and  _346
REMARK  127  A    between atoms: _345  and  _348
REMARK  128  A    between atoms: _348  and  _349
REMARK  129  A    between atoms: _353  and  _354
REMARK  130  A    between atoms: _360  and  _361
REMARK  131  A    between atoms: _366  and  _368
REMARK  132  A    between atoms: _368  and  _369
REMARK  133  A    between atoms: _368  and  _371
REMARK  134  A    between atoms: _371  and  _372
REMARK  135  A    between atoms: _375  and  _377
REMARK  136  A    between atoms: _377  and  _378
REMARK  137  A    between atoms: _377  and  _380
REMARK  138  A    between atoms: _380  and  _381
REMARK  139  A    between atoms: _384  and  _386
REMARK  140  A    between atoms: _386  and  _387
REMARK  141  A    between atoms: _386  and  _389
REMARK  142  A    between atoms: _391  and  _393
REMARK  143  A    between atoms: _393  and  _394
REMARK  144  A    between atoms: _393  and  _396
REMARK  145  A    between atoms: _399  and  _401
REMARK  146  A    between atoms: _401  and  _402
REMARK  147  A    between atoms: _401  and  _404
REMARK  148  A    between atoms: _404  and  _405
REMARK  149  A    between atoms: _415  and  _417
REMARK  150  A    between atoms: _417  and  _418
REMARK  151  A    between atoms: _417  and  _420
REMARK  152  A    between atoms: _420  and  _421
REMARK  153  A    between atoms: _426  and  _428
REMARK  154  A    between atoms: _428  and  _429
REMARK  155  A    between atoms: _428  and  _431
REMARK  156  A    between atoms: _431  and  _432
REMARK  157  A    between atoms: _432  and  _433
REMARK  158  A    between atoms: _433  and  _434
REMARK                            x       y       z     vdW  Elec       q    Type
REMARK                         _______ _______ _______ _____ _____    ______ ____
ROOT
ATOM      1  O   HOH     1      14.184   5.672   7.005  0.00  0.00    +0.000 OA
ENDROOT
TORSDOF 0
REMARK  Name = ../refined-set-2016/3r17/3r17_pocket.pdb
REMARK  158 active torsions:
REMARK  status: ('A' for Active; 'I' for Inactive)
REMARK    1  A    between atoms: _1  and  _3
REMARK    2  A    between atoms: _3  and  _4
REMARK    3  A    between atoms: _3  and  _6
REMARK    4  A    between atoms: _6  and  _7
REMARK    5  A    between atoms: _17  and  _19
REMARK    6  A    between atoms: _19  and  _20
REMARK    7  A    between atoms: _19  and  _22
REMARK    8  A    between atoms: _22  and  _23
REMARK    9  A    between atoms: _28  and  _29
REMARK   10  A    between atoms: _31  and  _33
REMARK   11  A    between atoms: _33  and  _34
REMARK   12  A    between atoms: _33  and  _36
REMARK   13  A    between atoms: _36  and  _37
REMARK   14  A    between atoms: _43  and  _45
REMARK   15  A    between atoms: _45  and  _46
REMARK   16  A    between atoms: _45  and  _48
REMARK   17  A    between atoms: _48  and  _49
REMARK   18  A    between atoms: _52  and  _53
REMARK   19  A    between atoms: _58  and  _60
REMARK   20  A    between atoms: _60  and  _61
REMARK   21  A    between atoms: _60  and  _63
REMARK   22  A    between atoms: _63  and  _64
REMARK   23  A    between atoms: _69  and  _71
REMARK   24  A    between atoms: _71  and  _72
REMARK   25  A    between atoms: _71  and  _74
REMARK   26  A    between atoms: _74  and  _75
REMARK   27  A    between atoms: _80  and  _82
REMARK   28  A    between atoms: _82  and  _83
REMARK   29  A    between atoms: _86  and  _88
REMARK   30  A    between atoms: _88  and  _89
REMARK   31  A    between atoms: _88  and  _91
REMARK   32  A    between atoms: _91  and  _92
REMARK   33  A    between atoms: _97  and  _99
REMARK   34  A    between atoms: _99  and  _100
REMARK   35  A    between atoms: _99  and  _102
REMARK   36  A    between atoms: _102  and  _103
REMARK   37  A    between atoms: _106  and  _108
REMARK   38  A    between atoms: _108  and  _109
REMARK   39  A    between atoms: _108  and  _111
REMARK   40  A    between atoms: _111  and  _112
REMARK   41  A    between atoms: _112  and  _113
REMARK   42  A    between atoms: _118  and  _120
REMARK   43  A    between atoms: _120  and  _121
REMARK   44  A    between atoms: _120  and  _123
REMARK   45  A    between atoms: _123  and  _124
REMARK   46  A    between atoms: _130  and  _132
REMARK   47  A    between atoms: _143  and  _146
REMARK   48  A    between atoms: _146  and  _147
REMARK   49  A    between atoms: _155  and  _156
REMARK   50  A    between atoms: _164  and  _166
REMARK   51  A    between atoms: _166  and  _167
REMARK   52  A    between atoms: _166  and  _169
REMARK   53  A    between atoms: _169  and  _170
REMARK   54  A    between atoms: _170  and  _171
REMARK   55  A    between atoms: _174  and  _176
REMARK   56  A    between atoms: _176  and  _177
REMARK   57  A    between atoms: _176  and  _179
REMARK   58  A    between atoms: _179  and  _180
REMARK   59  A    between atoms: _185  and  _187
REMARK   60  A    between atoms: _187  and  _188
REMARK   61  A    between atoms: _187  and  _190
REMARK   62  A    between atoms: _190  and  _191
REMARK   63  A    between atoms: _191  and  _192
REMARK   64  A    between atoms: _195  and  _197
REMARK   65  A    between atoms: _197  and  _198
REMARK   66  A    between atoms: _197  and  _200
REMARK   67  A    between atoms: _200  and  _201
REMARK   68  A    between atoms: _204  and  _206
REMARK   69  A    between atoms: _206  and  _207
REMARK   70  A    between atoms: _206  and  _209
REMARK   71  A    between atoms: _209  and  _210
REMARK   72  A    between atoms: _211  and  ZN_443
REMARK   73  A    between atoms: _215  and  _217
REMARK   74  A    between atoms: _217  and  _218
REMARK   75  A    between atoms: _217  and  _220
REMARK   76  A    between atoms: _220  and  _221
REMARK   77  A    between atoms: _224  and  _226
REMARK   78  A    between atoms: _226  and  _227
REMARK   79  A    between atoms: _226  and  _229
REMARK   80  A    between atoms: _232  and  _234
REMARK   81  A    between atoms: _234  and  _235
REMARK   82  A    between atoms: _234  and  _237
REMARK   83  A    between atoms: _237  and  _238
REMARK   84  A    between atoms: _243  and  _245
REMARK   85  A    between atoms: _245  and  _246
REMARK   86  A    between atoms: _245  and  _248
REMARK   87  A    between atoms: _248  and  _249
REMARK   88  A    between atoms: _255  and  _257
REMARK   89  A    between atoms: _257  and  _258
REMARK   90  A    between atoms: _260  and  _262
REMARK   91  A    between atoms: _262  and  _263
REMARK   92  A    between atoms: _262  and  _265
REMARK   93  A    between atoms: _268  and  _270
REMARK   94  A    between atoms: _270  and  _271
REMARK   95  A    between atoms: _270  and  _273
REMARK   96  A    between atoms: _273  and  _274
REMARK   97  A    between atoms: _274  and  _275
REMARK   98  A    between atoms: _280  and  _282
REMARK   99  A    between atoms: _282  and  _283
REMARK  100  A    between atoms: _282  and  _285
REMARK  101  A    between atoms: _285  and  _286
REMARK  102  A    between atoms: _289  and  _291
REMARK  103  A    between atoms: _291  and  _292
REMARK  104  A    between atoms: _295  and  _297
REMARK  105  A    between atoms: _297  and  _298
REMARK  106  A    between atoms: _297  and  _300
REMARK  107  A    between atoms: _303  and  _305
REMARK  108  A    between atoms: _305  and  _306
REMARK  109  A    between atoms: _305  and  _308
REMARK  110  A    between atoms: _308  and  _309
REMARK  111  A    between atoms: _312  and  _314
REMARK  112  A    between atoms: _314  and  _315
REMARK  113  A    between atoms: _317  and  _319
REMARK  114  A    between atoms: _319  and  _320
REMARK  115  A    between atoms: _319  and  _322
REMARK  116  A    between atoms: _322  and  _323
REMARK  117  A    between atoms: _325  and  _327
REMARK  118  A    between atoms: _327  and  _328
REMARK  119  A    between atoms: _327  and  _330
REMARK  120  A    between atoms: _330  and  _331
REMARK  121  A    between atoms: _334  and  _336
REMARK  122  A    between atoms: _336  and  _337
REMARK  123  A    between atoms: _336  and  _339
REMARK  124  A    between atoms: _339  and  _340
REMARK  125  A    between atoms: _343  and  _345
REMARK  126  A    between atoms: _345  and  _346
REMARK  127  A    between atoms: _345  and  _348
REMARK  128  A    between atoms: _348  and  _349
REMARK  129  A    between atoms: _353  and  _354
REMARK  130  A    between atoms: _360  and  _361
REMARK  131  A    between atoms: _366  and  _368
REMARK  132  A    between atoms: _368  and  _369
REMARK  133  A    between atoms: _368  and  _371
REMARK  134  A    between atoms: _371  and  _372
REMARK  135  A    between atoms: _375  and  _377
REMARK  136  A    between atoms: _377  and  _378
REMARK  137  A    between atoms: _377  and  _380
REMARK  138  A    between atoms: _380  and  _381
REMARK  139  A    between atoms: _384  and  _386
REMARK  140  A    between atoms: _386  and  _387
REMARK  141  A    between atoms: _386  and  _389
REMARK  142  A    between atoms: _391  and  _393
REMARK  143  A    between atoms: _393  and  _394
REMARK  144  A    between atoms: _393  and  _396
REMARK  145  A    between atoms: _399  and  _401
REMARK  146  A    between atoms: _401  and  _402
REMARK  147  A    between atoms: _401  and  _404
REMARK  148  A    between atoms: _404  and  _405
REMARK  149  A    between atoms: _415  and  _417
REMARK  150  A    between atoms: _417  and  _418
REMARK  151  A    between atoms: _417  and  _420
REMARK  152  A    between atoms: _420  and  _421
REMARK  153  A    between atoms: _426  and  _428
REMARK  154  A    between atoms: _428  and  _429
REMARK  155  A    between atoms: _428  and  _431
REMARK  156  A    between atoms: _431  and  _432
REMARK  157  A    between atoms: _432  and  _433
REMARK  158  A    between atoms: _433  and  _434
REMARK                            x       y       z     vdW  Elec       q    Type
REMARK                         _______ _______ _______ _____ _____    ______ ____
ROOT
ATOM      1  O   HOH     1      17.107   4.702   7.157  0.00  0.00    +0.000 OA
ENDROOT
TORSDOF 0
REMARK  Name = ../refined-set-2016/3r17/3r17_pocket.pdb
REMARK  158 active torsions:
REMARK  status: ('A' for Active; 'I' for Inactive)
REMARK    1  A    between atoms: _1  and  _3
REMARK    2  A    between atoms: _3  and  _4
REMARK    3  A    between atoms: _3  and  _6
REMARK    4  A    between atoms: _6  and  _7
REMARK    5  A    between atoms: _17  and  _19
REMARK    6  A    between atoms: _19  and  _20
REMARK    7  A    between atoms: _19  and  _22
REMARK    8  A    between atoms: _22  and  _23
REMARK    9  A    between atoms: _28  and  _29
REMARK   10  A    between atoms: _31  and  _33
REMARK   11  A    between atoms: _33  and  _34
REMARK   12  A    between atoms: _33  and  _36
REMARK   13  A    between atoms: _36  and  _37
REMARK   14  A    between atoms: _43  and  _45
REMARK   15  A    between atoms: _45  and  _46
REMARK   16  A    between atoms: _45  and  _48
REMARK   17  A    between atoms: _48  and  _49
REMARK   18  A    between atoms: _52  and  _53
REMARK   19  A    between atoms: _58  and  _60
REMARK   20  A    between atoms: _60  and  _61
REMARK   21  A    between atoms: _60  and  _63
REMARK   22  A    between atoms: _63  and  _64
REMARK   23  A    between atoms: _69  and  _71
REMARK   24  A    between atoms: _71  and  _72
REMARK   25  A    between atoms: _71  and  _74
REMARK   26  A    between atoms: _74  and  _75
REMARK   27  A    between atoms: _80  and  _82
REMARK   28  A    between atoms: _82  and  _83
REMARK   29  A    between atoms: _86  and  _88
REMARK   30  A    between atoms: _88  and  _89
REMARK   31  A    between atoms: _88  and  _91
REMARK   32  A    between atoms: _91  and  _92
REMARK   33  A    between atoms: _97  and  _99
REMARK   34  A    between atoms: _99  and  _100
REMARK   35  A    between atoms: _99  and  _102
REMARK   36  A    between atoms: _102  and  _103
REMARK   37  A    between atoms: _106  and  _108
REMARK   38  A    between atoms: _108  and  _109
REMARK   39  A    between atoms: _108  and  _111
REMARK   40  A    between atoms: _111  and  _112
REMARK   41  A    between atoms: _112  and  _113
REMARK   42  A    between atoms: _118  and  _120
REMARK   43  A    between atoms: _120  and  _121
REMARK   44  A    between atoms: _120  and  _123
REMARK   45  A    between atoms: _123  and  _124
REMARK   46  A    between atoms: _130  and  _132
REMARK   47  A    between atoms: _143  and  _146
REMARK   48  A    between atoms: _146  and  _147
REMARK   49  A    between atoms: _155  and  _156
REMARK   50  A    between atoms: _164  and  _166
REMARK   51  A    between atoms: _166  and  _167
REMARK   52  A    between atoms: _166  and  _169
REMARK   53  A    between atoms: _169  and  _170
REMARK   54  A    between atoms: _170  and  _171
REMARK   55  A    between atoms: _174  and  _176
REMARK   56  A    between atoms: _176  and  _177
REMARK   57  A    between atoms: _176  and  _179
REMARK   58  A    between atoms: _179  and  _180
REMARK   59  A    between atoms: _185  and  _187
REMARK   60  A    between atoms: _187  and  _188
REMARK   61  A    between atoms: _187  and  _190
REMARK   62  A    between atoms: _190  and  _191
REMARK   63  A    between atoms: _191  and  _192
REMARK   64  A    between atoms: _195  and  _197
REMARK   65  A    between atoms: _197  and  _198
REMARK   66  A    between atoms: _197  and  _200
REMARK   67  A    between atoms: _200  and  _201
REMARK   68  A    between atoms: _204  and  _206
REMARK   69  A    between atoms: _206  and  _207
REMARK   70  A    between atoms: _206  and  _209
REMARK   71  A    between atoms: _209  and  _210
REMARK   72  A    between atoms: _211  and  ZN_443
REMARK   73  A    between atoms: _215  and  _217
REMARK   74  A    between atoms: _217  and  _218
REMARK   75  A    between atoms: _217  and  _220
REMARK   76  A    between atoms: _220  and  _221
REMARK   77  A    between atoms: _224  and  _226
REMARK   78  A    between atoms: _226  and  _227
REMARK   79  A    between atoms: _226  and  _229
REMARK   80  A    between atoms: _232  and  _234
REMARK   81  A    between atoms: _234  and  _235
REMARK   82  A    between atoms: _234  and  _237
REMARK   83  A    between atoms: _237  and  _238
REMARK   84  A    between atoms: _243  and  _245
REMARK   85  A    between atoms: _245  and  _246
REMARK   86  A    between atoms: _245  and  _248
REMARK   87  A    between atoms: _248  and  _249
REMARK   88  A    between atoms: _255  and  _257
REMARK   89  A    between atoms: _257  and  _258
REMARK   90  A    between atoms: _260  and  _262
REMARK   91  A    between atoms: _262  and  _263
REMARK   92  A    between atoms: _262  and  _265
REMARK   93  A    between atoms: _268  and  _270
REMARK   94  A    between atoms: _270  and  _271
REMARK   95  A    between atoms: _270  and  _273
REMARK   96  A    between atoms: _273  and  _274
REMARK   97  A    between atoms: _274  and  _275
REMARK   98  A    between atoms: _280  and  _282
REMARK   99  A    between atoms: _282  and  _283
REMARK  100  A    between atoms: _282  and  _285
REMARK  101  A    between atoms: _285  and  _286
REMARK  102  A    between atoms: _289  and  _291
REMARK  103  A    between atoms: _291  and  _292
REMARK  104  A    between atoms: _295  and  _297
REMARK  105  A    between atoms: _297  and  _298
REMARK  106  A    between atoms: _297  and  _300
REMARK  107  A    between atoms: _303  and  _305
REMARK  108  A    between atoms: _305  and  _306
REMARK  109  A    between atoms: _305  and  _308
REMARK  110  A    between atoms: _308  and  _309
REMARK  111  A    between atoms: _312  and  _314
REMARK  112  A    between atoms: _314  and  _315
REMARK  113  A    between atoms: _317  and  _319
REMARK  114  A    between atoms: _319  and  _320
REMARK  115  A    between atoms: _319  and  _322
REMARK  116  A    between atoms: _322  and  _323
REMARK  117  A    between atoms: _325  and  _327
REMARK  118  A    between atoms: _327  and  _328
REMARK  119  A    between atoms: _327  and  _330
REMARK  120  A    between atoms: _330  and  _331
REMARK  121  A    between atoms: _334  and  _336
REMARK  122  A    between atoms: _336  and  _337
REMARK  123  A    between atoms: _336  and  _339
REMARK  124  A    between atoms: _339  and  _340
REMARK  125  A    between atoms: _343  and  _345
REMARK  126  A    between atoms: _345  and  _346
REMARK  127  A    between atoms: _345  and  _348
REMARK  128  A    between atoms: _348  and  _349
REMARK  129  A    between atoms: _353  and  _354
REMARK  130  A    between atoms: _360  and  _361
REMARK  131  A    between atoms: _366  and  _368
REMARK  132  A    between atoms: _368  and  _369
REMARK  133  A    between atoms: _368  and  _371
REMARK  134  A    between atoms: _371  and  _372
REMARK  135  A    between atoms: _375  and  _377
REMARK  136  A    between atoms: _377  and  _378
REMARK  137  A    between atoms: _377  and  _380
REMARK  138  A    between atoms: _380  and  _381
REMARK  139  A    between atoms: _384  and  _386
REMARK  140  A    between atoms: _386  and  _387
REMARK  141  A    between atoms: _386  and  _389
REMARK  142  A    between atoms: _391  and  _393
REMARK  143  A    between atoms: _393  and  _394
REMARK  144  A    between atoms: _393  and  _396
REMARK  145  A    between atoms: _399  and  _401
REMARK  146  A    between atoms: _401  and  _402
REMARK  147  A    between atoms: _401  and  _404
REMARK  148  A    between atoms: _404  and  _405
REMARK  149  A    between atoms: _415  and  _417
REMARK  150  A    between atoms: _417  and  _418
REMARK  151  A    between atoms: _417  and  _420
REMARK  152  A    between atoms: _420  and  _421
REMARK  153  A    between atoms: _426  and  _428
REMARK  154  A    between atoms: _428  and  _429
REMARK  155  A    between atoms: _428  and  _431
REMARK  156  A    between atoms: _431  and  _432
REMARK  157  A    between atoms: _432  and  _433
REMARK  158  A    between atoms: _433  and  _434
REMARK                            x       y       z     vdW  Elec       q    Type
REMARK                         _______ _______ _______ _____ _____    ______ ____
ROOT
ATOM      1  O   HOH     1      17.471   4.879   9.989  0.00  0.00    +0.000 OA
ENDROOT
TORSDOF 0
