REMARK  Name = ../refined-set-2016/2pym/2pym_pocket.pdb
REMARK  225 active torsions:
REMARK  status: ('A' for Active; 'I' for Inactive)
REMARK    1  A    between atoms: _1  and  _3
REMARK    2  A    between atoms: _3  and  _4
REMARK    3  A    between atoms: _3  and  _6
REMARK    4  A    between atoms: _6  and  _7
REMARK    5  A    between atoms: _7  and  _8
REMARK    6  A    between atoms: _8  and  _9
REMARK    7  A    between atoms: _18  and  _20
REMARK    8  A    between atoms: _20  and  _21
REMARK    9  A    between atoms: _20  and  _23
REMARK   10  A    between atoms: _23  and  _24
REMARK   11  A    between atoms: _27  and  _29
REMARK   12  A    between atoms: _29  and  _30
REMARK   13  A    between atoms: _29  and  _32
REMARK   14  A    between atoms: _32  and  _33
REMARK   15  A    between atoms: _36  and  _38
REMARK   16  A    between atoms: _38  and  _39
REMARK   17  A    between atoms: _38  and  _41
REMARK   18  A    between atoms: _41  and  _42
REMARK   19  A    between atoms: _45  and  _47
REMARK   20  A    between atoms: _47  and  _48
REMARK   21  A    between atoms: _47  and  _50
REMARK   22  A    between atoms: _50  and  _51
REMARK   23  A    between atoms: _54  and  _56
REMARK   24  A    between atoms: _56  and  _57
REMARK   25  A    between atoms: _59  and  _61
REMARK   26  A    between atoms: _61  and  _62
REMARK   27  A    between atoms: _65  and  _67
REMARK   28  A    between atoms: _67  and  _68
REMARK   29  A    between atoms: _67  and  _70
REMARK   30  A    between atoms: _70  and  _71
REMARK   31  A    between atoms: _74  and  _76
REMARK   32  A    between atoms: _76  and  _77
REMARK   33  A    between atoms: _76  and  _79
REMARK   34  A    between atoms: _79  and  _80
REMARK   35  A    between atoms: _85  and  _87
REMARK   36  A    between atoms: _87  and  _88
REMARK   37  A    between atoms: _87  and  _90
REMARK   38  A    between atoms: _90  and  _91
REMARK   39  A    between atoms: _94  and  _96
REMARK   40  A    between atoms: _96  and  _97
REMARK   41  A    between atoms: _96  and  _99
REMARK   42  A    between atoms: _102  and  _104
REMARK   43  A    between atoms: _104  and  _105
REMARK   44  A    between atoms: _104  and  _107
REMARK   45  A    between atoms: _107  and  _108
REMARK   46  A    between atoms: _108  and  _109
REMARK   47  A    between atoms: _109  and  _110
REMARK   48  A    between atoms: _110  and  _111
REMARK   49  A    between atoms: _115  and  _117
REMARK   50  A    between atoms: _117  and  _118
REMARK   51  A    between atoms: _117  and  _120
REMARK   52  A    between atoms: _120  and  _121
REMARK   53  A    between atoms: _124  and  _126
REMARK   54  A    between atoms: _126  and  _127
REMARK   55  A    between atoms: _129  and  _131
REMARK   56  A    between atoms: _131  and  _132
REMARK   57  A    between atoms: _134  and  _136
REMARK   58  A    between atoms: _136  and  _137
REMARK   59  A    between atoms: _136  and  _139
REMARK   60  A    between atoms: _139  and  _140
REMARK   61  A    between atoms: _143  and  _145
REMARK   62  A    between atoms: _145  and  _146
REMARK   63  A    between atoms: _148  and  _150
REMARK   64  A    between atoms: _150  and  _151
REMARK   65  A    between atoms: _153  and  _155
REMARK   66  A    between atoms: _155  and  _156
REMARK   67  A    between atoms: _155  and  _158
REMARK   68  A    between atoms: _158  and  _159
REMARK   69  A    between atoms: _162  and  _164
REMARK   70  A    between atoms: _164  and  _165
REMARK   71  A    between atoms: _164  and  _167
REMARK   72  A    between atoms: _167  and  _168
REMARK   73  A    between atoms: _172  and  _173
REMARK   74  A    between atoms: _178  and  _180
REMARK   75  A    between atoms: _180  and  _181
REMARK   76  A    between atoms: _180  and  _183
REMARK   77  A    between atoms: _183  and  _184
REMARK   78  A    between atoms: _188  and  _189
REMARK   79  A    between atoms: _194  and  _196
REMARK   80  A    between atoms: _196  and  _197
REMARK   81  A    between atoms: _196  and  _199
REMARK   82  A    between atoms: _202  and  _204
REMARK   83  A    between atoms: _204  and  _205
REMARK   84  A    between atoms: _204  and  _207
REMARK   85  A    between atoms: _207  and  _208
REMARK   86  A    between atoms: _213  and  _215
REMARK   87  A    between atoms: _215  and  _216
REMARK   88  A    between atoms: _215  and  _218
REMARK   89  A    between atoms: _218  and  _219
REMARK   90  A    between atoms: _222  and  _224
REMARK   91  A    between atoms: _224  and  _225
REMARK   92  A    between atoms: _224  and  _227
REMARK   93  A    between atoms: _227  and  _228
REMARK   94  A    between atoms: _231  and  _233
REMARK   95  A    between atoms: _233  and  _234
REMARK   96  A    between atoms: _236  and  _238
REMARK   97  A    between atoms: _238  and  _239
REMARK   98  A    between atoms: _238  and  _241
REMARK   99  A    between atoms: _241  and  _242
REMARK  100  A    between atoms: _242  and  _243
REMARK  101  A    between atoms: _243  and  _244
REMARK  102  A    between atoms: _253  and  _255
REMARK  103  A    between atoms: _255  and  _256
REMARK  104  A    between atoms: _255  and  _258
REMARK  105  A    between atoms: _258  and  _259
REMARK  106  A    between atoms: _262  and  _264
REMARK  107  A    between atoms: _264  and  _265
REMARK  108  A    between atoms: _264  and  _267
REMARK  109  A    between atoms: _267  and  _268
REMARK  110  A    between atoms: _268  and  _269
REMARK  111  A    between atoms: _269  and  _270
REMARK  112  A    between atoms: _279  and  _281
REMARK  113  A    between atoms: _281  and  _282
REMARK  114  A    between atoms: _281  and  _284
REMARK  115  A    between atoms: _284  and  _285
REMARK  116  A    between atoms: _288  and  _290
REMARK  117  A    between atoms: _290  and  _291
REMARK  118  A    between atoms: _290  and  _293
REMARK  119  A    between atoms: _293  and  _294
REMARK  120  A    between atoms: _297  and  _299
REMARK  121  A    between atoms: _299  and  _300
REMARK  122  A    between atoms: _299  and  _302
REMARK  123  A    between atoms: _302  and  _303
REMARK  124  A    between atoms: _306  and  _308
REMARK  125  A    between atoms: _308  and  _309
REMARK  126  A    between atoms: _308  and  _311
REMARK  127  A    between atoms: _311  and  _312
REMARK  128  A    between atoms: _315  and  _317
REMARK  129  A    between atoms: _317  and  _318
REMARK  130  A    between atoms: _317  and  _320
REMARK  131  A    between atoms: _320  and  _321
REMARK  132  A    between atoms: _324  and  _326
REMARK  133  A    between atoms: _326  and  _327
REMARK  134  A    between atoms: _329  and  _331
REMARK  135  A    between atoms: _331  and  _332
REMARK  136  A    between atoms: _335  and  _337
REMARK  137  A    between atoms: _337  and  _338
REMARK  138  A    between atoms: _337  and  _340
REMARK  139  A    between atoms: _340  and  _341
REMARK  140  A    between atoms: _344  and  _346
REMARK  141  A    between atoms: _346  and  _347
REMARK  142  A    between atoms: _346  and  _349
REMARK  143  A    between atoms: _349  and  _350
REMARK  144  A    between atoms: _355  and  _357
REMARK  145  A    between atoms: _357  and  _358
REMARK  146  A    between atoms: _357  and  _360
REMARK  147  A    between atoms: _360  and  _361
REMARK  148  A    between atoms: _364  and  _366
REMARK  149  A    between atoms: _366  and  _367
REMARK  150  A    between atoms: _366  and  _369
REMARK  151  A    between atoms: _372  and  _374
REMARK  152  A    between atoms: _374  and  _375
REMARK  153  A    between atoms: _374  and  _377
REMARK  154  A    between atoms: _377  and  _378
REMARK  155  A    between atoms: _381  and  _383
REMARK  156  A    between atoms: _383  and  _384
REMARK  157  A    between atoms: _383  and  _386
REMARK  158  A    between atoms: _386  and  _387
REMARK  159  A    between atoms: _387  and  _388
REMARK  160  A    between atoms: _388  and  _389
REMARK  161  A    between atoms: _389  and  _390
REMARK  162  A    between atoms: _394  and  _396
REMARK  163  A    between atoms: _396  and  _397
REMARK  164  A    between atoms: _396  and  _399
REMARK  165  A    between atoms: _399  and  _400
REMARK  166  A    between atoms: _400  and  _401
REMARK  167  A    between atoms: _403  and  _405
REMARK  168  A    between atoms: _405  and  _406
REMARK  169  A    between atoms: _405  and  _408
REMARK  170  A    between atoms: _408  and  _409
REMARK  171  A    between atoms: _412  and  _414
REMARK  172  A    between atoms: _414  and  _415
REMARK  173  A    between atoms: _417  and  _419
REMARK  174  A    between atoms: _419  and  _420
REMARK  175  A    between atoms: _422  and  _424
REMARK  176  A    between atoms: _424  and  _425
REMARK  177  A    between atoms: _424  and  _427
REMARK  178  A    between atoms: _427  and  _428
REMARK  179  A    between atoms: _431  and  _433
REMARK  180  A    between atoms: _433  and  _434
REMARK  181  A    between atoms: _436  and  _438
REMARK  182  A    between atoms: _438  and  _439
REMARK  183  A    between atoms: _441  and  _443
REMARK  184  A    between atoms: _443  and  _444
REMARK  185  A    between atoms: _443  and  _446
REMARK  186  A    between atoms: _446  and  _447
REMARK  187  A    between atoms: _453  and  _455
REMARK  188  A    between atoms: _455  and  _456
REMARK  189  A    between atoms: _455  and  _458
REMARK  190  A    between atoms: _458  and  _459
REMARK  191  A    between atoms: _462  and  _464
REMARK  192  A    between atoms: _464  and  _465
REMARK  193  A    between atoms: _464  and  _467
REMARK  194  A    between atoms: _470  and  _472
REMARK  195  A    between atoms: _472  and  _473
REMARK  196  A    between atoms: _472  and  _475
REMARK  197  A    between atoms: _475  and  _476
REMARK  198  A    between atoms: _479  and  _481
REMARK  199  A    between atoms: _481  and  _482
REMARK  200  A    between atoms: _481  and  _484
REMARK  201  A    between atoms: _484  and  _485
REMARK  202  A    between atoms: _489  and  _490
REMARK  203  A    between atoms: _495  and  _497
REMARK  204  A    between atoms: _497  and  _498
REMARK  205  A    between atoms: _497  and  _500
REMARK  206  A    between atoms: _503  and  _505
REMARK  207  A    between atoms: _505  and  _506
REMARK  208  A    between atoms: _505  and  _508
REMARK  209  A    between atoms: _508  and  _509
REMARK  210  A    between atoms: _514  and  _516
REMARK  211  A    between atoms: _516  and  _517
REMARK  212  A    between atoms: _516  and  _519
REMARK  213  A    between atoms: _519  and  _520
REMARK  214  A    between atoms: _523  and  _525
REMARK  215  A    between atoms: _525  and  _526
REMARK  216  A    between atoms: _525  and  _528
REMARK  217  A    between atoms: _528  and  _529
REMARK  218  A    between atoms: _532  and  _534
REMARK  219  A    between atoms: _534  and  _535
REMARK  220  A    between atoms: _537  and  _539
REMARK  221  A    between atoms: _539  and  _540
REMARK  222  A    between atoms: _539  and  _542
REMARK  223  A    between atoms: _542  and  _543
REMARK  224  A    between atoms: _543  and  _544
REMARK  225  A    between atoms: _544  and  _545
REMARK                            x       y       z     vdW  Elec       q    Type
REMARK                         _______ _______ _______ _____ _____    ______ ____
ROOT
ATOM      1  NE  ARG A   1     -17.601  14.162  32.739  0.00  0.00    -0.265 N 
ATOM      2  HE  ARG A   1     -17.331  14.581  33.652  0.00  0.00    +0.259 HD
ATOM      3  CZ  ARG A   1     -17.003  13.028  32.381  0.00  0.00    +0.342 C 
ATOM      4  NH2 ARG A   1     -16.098  12.486  33.180  0.00  0.00    -0.292 N 
ATOM      5 HH21 ARG A   1     -15.858  12.946  34.081  0.00  0.00    +0.255 HD
ATOM      6 HH22 ARG A   1     -15.627  11.600  32.907  0.00  0.00    +0.255 HD
ATOM      7  NH1 ARG A   1     -17.298  12.442  31.223  0.00  0.00    -0.292 N 
ATOM      8 HH11 ARG A   1     -16.825  11.556  30.953  0.00  0.00    +0.255 HD
ATOM      9 HH12 ARG A   1     -18.002  12.870  30.588  0.00  0.00    +0.255 HD
ENDROOT
BRANCH   1  10
ATOM     10  CD  ARG A   1     -18.611  14.863  31.943  0.00  0.00    +0.174 C 
BRANCH  10  11
ATOM     11  CG  ARG A   1     -18.770  16.302  32.432  0.00  0.00    +0.045 C 
BRANCH  11  12
ATOM     12  CB  ARG A   1     -20.007  16.947  31.844  0.00  0.00    +0.029 C 
BRANCH  12  13
ATOM     13  CA  ARG A   1     -20.143  18.440  32.130  0.00  0.00    +0.133 C 
BRANCH  13  14
ATOM     14  N   ARG A   1     -20.724  18.660  33.463  0.00  0.00    -0.239 NA
ATOM     15  H   ARG A   1     -20.910  17.848  34.085  0.00  0.00    +0.142 HD
ENDBRANCH  13  14
BRANCH  13  16
ATOM     16  C   ARG A   1     -21.040  19.082  31.072  0.00  0.00    +0.224 C 
ATOM     17  O   ARG A   1     -22.263  18.882  31.098  0.00  0.00    -0.287 OA
ENDBRANCH  13  16
ENDBRANCH  12  13
ENDBRANCH  11  12
ENDBRANCH  10  11
ENDBRANCH   1  10
TORSDOF 6
REMARK  Name = ../refined-set-2016/2pym/2pym_pocket.pdb
REMARK  225 active torsions:
REMARK  status: ('A' for Active; 'I' for Inactive)
REMARK    1  A    between atoms: _1  and  _3
REMARK    2  A    between atoms: _3  and  _4
REMARK    3  A    between atoms: _3  and  _6
REMARK    4  A    between atoms: _6  and  _7
REMARK    5  A    between atoms: _7  and  _8
REMARK    6  A    between atoms: _8  and  _9
REMARK    7  A    between atoms: _18  and  _20
REMARK    8  A    between atoms: _20  and  _21
REMARK    9  A    between atoms: _20  and  _23
REMARK   10  A    between atoms: _23  and  _24
REMARK   11  A    between atoms: _27  and  _29
REMARK   12  A    between atoms: _29  and  _30
REMARK   13  A    between atoms: _29  and  _32
REMARK   14  A    between atoms: _32  and  _33
REMARK   15  A    between atoms: _36  and  _38
REMARK   16  A    between atoms: _38  and  _39
REMARK   17  A    between atoms: _38  and  _41
REMARK   18  A    between atoms: _41  and  _42
REMARK   19  A    between atoms: _45  and  _47
REMARK   20  A    between atoms: _47  and  _48
REMARK   21  A    between atoms: _47  and  _50
REMARK   22  A    between atoms: _50  and  _51
REMARK   23  A    between atoms: _54  and  _56
REMARK   24  A    between atoms: _56  and  _57
REMARK   25  A    between atoms: _59  and  _61
REMARK   26  A    between atoms: _61  and  _62
REMARK   27  A    between atoms: _65  and  _67
REMARK   28  A    between atoms: _67  and  _68
REMARK   29  A    between atoms: _67  and  _70
REMARK   30  A    between atoms: _70  and  _71
REMARK   31  A    between atoms: _74  and  _76
REMARK   32  A    between atoms: _76  and  _77
REMARK   33  A    between atoms: _76  and  _79
REMARK   34  A    between atoms: _79  and  _80
REMARK   35  A    between atoms: _85  and  _87
REMARK   36  A    between atoms: _87  and  _88
REMARK   37  A    between atoms: _87  and  _90
REMARK   38  A    between atoms: _90  and  _91
REMARK   39  A    between atoms: _94  and  _96
REMARK   40  A    between atoms: _96  and  _97
REMARK   41  A    between atoms: _96  and  _99
REMARK   42  A    between atoms: _102  and  _104
REMARK   43  A    between atoms: _104  and  _105
REMARK   44  A    between atoms: _104  and  _107
REMARK   45  A    between atoms: _107  and  _108
REMARK   46  A    between atoms: _108  and  _109
REMARK   47  A    between atoms: _109  and  _110
REMARK   48  A    between atoms: _110  and  _111
REMARK   49  A    between atoms: _115  and  _117
REMARK   50  A    between atoms: _117  and  _118
REMARK   51  A    between atoms: _117  and  _120
REMARK   52  A    between atoms: _120  and  _121
REMARK   53  A    between atoms: _124  and  _126
REMARK   54  A    between atoms: _126  and  _127
REMARK   55  A    between atoms: _129  and  _131
REMARK   56  A    between atoms: _131  and  _132
REMARK   57  A    between atoms: _134  and  _136
REMARK   58  A    between atoms: _136  and  _137
REMARK   59  A    between atoms: _136  and  _139
REMARK   60  A    between atoms: _139  and  _140
REMARK   61  A    between atoms: _143  and  _145
REMARK   62  A    between atoms: _145  and  _146
REMARK   63  A    between atoms: _148  and  _150
REMARK   64  A    between atoms: _150  and  _151
REMARK   65  A    between atoms: _153  and  _155
REMARK   66  A    between atoms: _155  and  _156
REMARK   67  A    between atoms: _155  and  _158
REMARK   68  A    between atoms: _158  and  _159
REMARK   69  A    between atoms: _162  and  _164
REMARK   70  A    between atoms: _164  and  _165
REMARK   71  A    between atoms: _164  and  _167
REMARK   72  A    between atoms: _167  and  _168
REMARK   73  A    between atoms: _172  and  _173
REMARK   74  A    between atoms: _178  and  _180
REMARK   75  A    between atoms: _180  and  _181
REMARK   76  A    between atoms: _180  and  _183
REMARK   77  A    between atoms: _183  and  _184
REMARK   78  A    between atoms: _188  and  _189
REMARK   79  A    between atoms: _194  and  _196
REMARK   80  A    between atoms: _196  and  _197
REMARK   81  A    between atoms: _196  and  _199
REMARK   82  A    between atoms: _202  and  _204
REMARK   83  A    between atoms: _204  and  _205
REMARK   84  A    between atoms: _204  and  _207
REMARK   85  A    between atoms: _207  and  _208
REMARK   86  A    between atoms: _213  and  _215
REMARK   87  A    between atoms: _215  and  _216
REMARK   88  A    between atoms: _215  and  _218
REMARK   89  A    between atoms: _218  and  _219
REMARK   90  A    between atoms: _222  and  _224
REMARK   91  A    between atoms: _224  and  _225
REMARK   92  A    between atoms: _224  and  _227
REMARK   93  A    between atoms: _227  and  _228
REMARK   94  A    between atoms: _231  and  _233
REMARK   95  A    between atoms: _233  and  _234
REMARK   96  A    between atoms: _236  and  _238
REMARK   97  A    between atoms: _238  and  _239
REMARK   98  A    between atoms: _238  and  _241
REMARK   99  A    between atoms: _241  and  _242
REMARK  100  A    between atoms: _242  and  _243
REMARK  101  A    between atoms: _243  and  _244
REMARK  102  A    between atoms: _253  and  _255
REMARK  103  A    between atoms: _255  and  _256
REMARK  104  A    between atoms: _255  and  _258
REMARK  105  A    between atoms: _258  and  _259
REMARK  106  A    between atoms: _262  and  _264
REMARK  107  A    between atoms: _264  and  _265
REMARK  108  A    between atoms: _264  and  _267
REMARK  109  A    between atoms: _267  and  _268
REMARK  110  A    between atoms: _268  and  _269
REMARK  111  A    between atoms: _269  and  _270
REMARK  112  A    between atoms: _279  and  _281
REMARK  113  A    between atoms: _281  and  _282
REMARK  114  A    between atoms: _281  and  _284
REMARK  115  A    between atoms: _284  and  _285
REMARK  116  A    between atoms: _288  and  _290
REMARK  117  A    between atoms: _290  and  _291
REMARK  118  A    between atoms: _290  and  _293
REMARK  119  A    between atoms: _293  and  _294
REMARK  120  A    between atoms: _297  and  _299
REMARK  121  A    between atoms: _299  and  _300
REMARK  122  A    between atoms: _299  and  _302
REMARK  123  A    between atoms: _302  and  _303
REMARK  124  A    between atoms: _306  and  _308
REMARK  125  A    between atoms: _308  and  _309
REMARK  126  A    between atoms: _308  and  _311
REMARK  127  A    between atoms: _311  and  _312
REMARK  128  A    between atoms: _315  and  _317
REMARK  129  A    between atoms: _317  and  _318
REMARK  130  A    between atoms: _317  and  _320
REMARK  131  A    between atoms: _320  and  _321
REMARK  132  A    between atoms: _324  and  _326
REMARK  133  A    between atoms: _326  and  _327
REMARK  134  A    between atoms: _329  and  _331
REMARK  135  A    between atoms: _331  and  _332
REMARK  136  A    between atoms: _335  and  _337
REMARK  137  A    between atoms: _337  and  _338
REMARK  138  A    between atoms: _337  and  _340
REMARK  139  A    between atoms: _340  and  _341
REMARK  140  A    between atoms: _344  and  _346
REMARK  141  A    between atoms: _346  and  _347
REMARK  142  A    between atoms: _346  and  _349
REMARK  143  A    between atoms: _349  and  _350
REMARK  144  A    between atoms: _355  and  _357
REMARK  145  A    between atoms: _357  and  _358
REMARK  146  A    between atoms: _357  and  _360
REMARK  147  A    between atoms: _360  and  _361
REMARK  148  A    between atoms: _364  and  _366
REMARK  149  A    between atoms: _366  and  _367
REMARK  150  A    between atoms: _366  and  _369
REMARK  151  A    between atoms: _372  and  _374
REMARK  152  A    between atoms: _374  and  _375
REMARK  153  A    between atoms: _374  and  _377
REMARK  154  A    between atoms: _377  and  _378
REMARK  155  A    between atoms: _381  and  _383
REMARK  156  A    between atoms: _383  and  _384
REMARK  157  A    between atoms: _383  and  _386
REMARK  158  A    between atoms: _386  and  _387
REMARK  159  A    between atoms: _387  and  _388
REMARK  160  A    between atoms: _388  and  _389
REMARK  161  A    between atoms: _389  and  _390
REMARK  162  A    between atoms: _394  and  _396
REMARK  163  A    between atoms: _396  and  _397
REMARK  164  A    between atoms: _396  and  _399
REMARK  165  A    between atoms: _399  and  _400
REMARK  166  A    between atoms: _400  and  _401
REMARK  167  A    between atoms: _403  and  _405
REMARK  168  A    between atoms: _405  and  _406
REMARK  169  A    between atoms: _405  and  _408
REMARK  170  A    between atoms: _408  and  _409
REMARK  171  A    between atoms: _412  and  _414
REMARK  172  A    between atoms: _414  and  _415
REMARK  173  A    between atoms: _417  and  _419
REMARK  174  A    between atoms: _419  and  _420
REMARK  175  A    between atoms: _422  and  _424
REMARK  176  A    between atoms: _424  and  _425
REMARK  177  A    between atoms: _424  and  _427
REMARK  178  A    between atoms: _427  and  _428
REMARK  179  A    between atoms: _431  and  _433
REMARK  180  A    between atoms: _433  and  _434
REMARK  181  A    between atoms: _436  and  _438
REMARK  182  A    between atoms: _438  and  _439
REMARK  183  A    between atoms: _441  and  _443
REMARK  184  A    between atoms: _443  and  _444
REMARK  185  A    between atoms: _443  and  _446
REMARK  186  A    between atoms: _446  and  _447
REMARK  187  A    between atoms: _453  and  _455
REMARK  188  A    between atoms: _455  and  _456
REMARK  189  A    between atoms: _455  and  _458
REMARK  190  A    between atoms: _458  and  _459
REMARK  191  A    between atoms: _462  and  _464
REMARK  192  A    between atoms: _464  and  _465
REMARK  193  A    between atoms: _464  and  _467
REMARK  194  A    between atoms: _470  and  _472
REMARK  195  A    between atoms: _472  and  _473
REMARK  196  A    between atoms: _472  and  _475
REMARK  197  A    between atoms: _475  and  _476
REMARK  198  A    between atoms: _479  and  _481
REMARK  199  A    between atoms: _481  and  _482
REMARK  200  A    between atoms: _481  and  _484
REMARK  201  A    between atoms: _484  and  _485
REMARK  202  A    between atoms: _489  and  _490
REMARK  203  A    between atoms: _495  and  _497
REMARK  204  A    between atoms: _497  and  _498
REMARK  205  A    between atoms: _497  and  _500
REMARK  206  A    between atoms: _503  and  _505
REMARK  207  A    between atoms: _505  and  _506
REMARK  208  A    between atoms: _505  and  _508
REMARK  209  A    between atoms: _508  and  _509
REMARK  210  A    between atoms: _514  and  _516
REMARK  211  A    between atoms: _516  and  _517
REMARK  212  A    between atoms: _516  and  _519
REMARK  213  A    between atoms: _519  and  _520
REMARK  214  A    between atoms: _523  and  _525
REMARK  215  A    between atoms: _525  and  _526
REMARK  216  A    between atoms: _525  and  _528
REMARK  217  A    between atoms: _528  and  _529
REMARK  218  A    between atoms: _532  and  _534
REMARK  219  A    between atoms: _534  and  _535
REMARK  220  A    between atoms: _537  and  _539
REMARK  221  A    between atoms: _539  and  _540
REMARK  222  A    between atoms: _539  and  _542
REMARK  223  A    between atoms: _542  and  _543
REMARK  224  A    between atoms: _543  and  _544
REMARK  225  A    between atoms: _544  and  _545
REMARK                            x       y       z     vdW  Elec       q    Type
REMARK                         _______ _______ _______ _____ _____    ______ ____
ROOT
ATOM      1  C   GLY A   5      -9.033  20.309  24.054  0.00  0.00    +0.243 C 
ATOM      2  O   GLY A   5      -7.923  19.778  23.970  0.00  0.00    -0.273 OA
ATOM      3  N   ALA A   6     -10.010  20.053  23.187  0.00  0.00    -0.297 N 
ATOM      4  H   ALA A   6     -10.938  20.502  23.327  0.00  0.00    +0.150 HD
ENDROOT
BRANCH   3   5
ATOM      5  CA  ALA A   6      -9.822  19.169  22.055  0.00  0.00    +0.149 C 
ATOM      6  CB  ALA A   6     -11.015  18.229  21.946  0.00  0.00    +0.031 C 
BRANCH   5   7
ATOM      7  C   ALA A   6      -9.700  19.984  20.777  0.00  0.00    +0.241 C 
ATOM      8  O   ALA A   6     -10.543  20.841  20.507  0.00  0.00    -0.273 OA
ATOM      9  N   ASP A   7      -8.673  19.686  19.981  0.00  0.00    -0.297 N 
ATOM     10  H   ASP A   7      -7.989  18.969  20.297  0.00  0.00    +0.150 HD
BRANCH   9  11
ATOM     11  CA  ASP A   7      -8.468  20.325  18.684  0.00  0.00    +0.160 C 
BRANCH  11  12
ATOM     12  C   ASP A   7      -9.492  19.780  17.689  0.00  0.00    +0.241 C 
ATOM     13  N   ASN A   8      -9.820  18.495  17.842  0.00  0.00    -0.297 N 
ATOM     14  H   ASN A   8      -9.476  17.998  18.688  0.00  0.00    +0.150 HD
ATOM     15  O   ASP A   7      -9.963  20.515  16.811  0.00  0.00    -0.273 OA
BRANCH  13  16
ATOM     16  CA  ASN A   8     -10.634  17.748  16.889  0.00  0.00    +0.158 C 
BRANCH  16  17
ATOM     17  C   ASN A   8     -11.897  17.194  17.532  0.00  0.00    +0.241 C 
ATOM     18  O   ASN A   8     -11.974  17.020  18.755  0.00  0.00    -0.273 OA
ATOM     19  N   THR A   9     -12.875  16.913  16.682  0.00  0.00    -0.295 N 
ATOM     20  H   THR A   9     -12.734  17.120  15.673  0.00  0.00    +0.150 HD
BRANCH  19  21
ATOM     21  CA  THR A   9     -14.129  16.331  17.101  0.00  0.00    +0.176 C 
BRANCH  21  22
ATOM     22  C   THR A   9     -14.009  14.821  16.925  0.00  0.00    +0.243 C 
ATOM     23  N   VAL A  10     -14.311  14.072  17.989  0.00  0.00    -0.298 N 
ATOM     24  H   VAL A  10     -14.671  14.540  18.845  0.00  0.00    +0.150 HD
ATOM     25  O   THR A   9     -13.587  14.351  15.853  0.00  0.00    -0.273 OA
BRANCH  23  26
ATOM     26  CA  VAL A  10     -14.153  12.611  17.993  0.00  0.00    +0.137 C 
BRANCH  26  27
ATOM     27  CB  VAL A  10     -12.991  12.137  18.901  0.00  0.00    +0.026 C 
ATOM     28  CG2 VAL A  10     -11.791  13.047  18.776  0.00  0.00    +0.002 C 
ATOM     29  CG1 VAL A  10     -12.631  10.681  18.575  0.00  0.00    +0.002 C 
ENDBRANCH  26  27
BRANCH  26  30
ATOM     30  C   VAL A  10     -15.425  11.946  18.502  0.00  0.00    +0.227 C 
ATOM     31  O   VAL A  10     -15.889  12.236  19.611  0.00  0.00    -0.286 OA
ENDBRANCH  26  30
ENDBRANCH  23  26
ENDBRANCH  21  22
BRANCH  21  32
ATOM     32  CB  THR A   9     -15.273  16.929  16.282  0.00  0.00    +0.137 C 
ATOM     33  CG2 THR A   9     -16.589  16.181  16.523  0.00  0.00    +0.034 C 
BRANCH  32  34
ATOM     34  OG1 THR A   9     -15.434  18.310  16.646  0.00  0.00    -0.382 OA
ATOM     35  HG1 THR A   9     -14.595  18.800  16.457  0.00  0.00    +0.210 HD
ENDBRANCH  32  34
ENDBRANCH  21  32
ENDBRANCH  19  21
ENDBRANCH  16  17
BRANCH  16  36
ATOM     36  CB  ASN A   8      -9.844  16.564  16.308  0.00  0.00    +0.114 C 
BRANCH  36  37
ATOM     37  CG  ASN A   8      -8.412  16.916  15.966  0.00  0.00    +0.222 C 
ATOM     38  ND2 ASN A   8      -7.490  16.638  16.888  0.00  0.00    -0.329 N 
ATOM     39 HD21 ASN A   8      -7.772  16.212  17.794  0.00  0.00    +0.145 HD
ATOM     40 HD22 ASN A   8      -6.488  16.847  16.701  0.00  0.00    +0.145 HD
ATOM     41  OD1 ASN A   8      -8.133  17.416  14.886  0.00  0.00    -0.275 OA
ENDBRANCH  36  37
ENDBRANCH  16  36
ENDBRANCH  13  16
ENDBRANCH  11  12
BRANCH  11  42
ATOM     42  CB  ASP A   7      -7.061  20.009  18.147  0.00  0.00    +0.143 C 
BRANCH  42  43
ATOM     43  CG  ASP A   7      -5.930  20.544  19.034  0.00  0.00    +0.367 C 
ATOM     44  OD2 ASP A   7      -6.129  21.472  19.840  0.00  0.00    -0.246 OA
ATOM     45  OD1 ASP A   7      -4.805  20.033  18.897  0.00  0.00    -0.246 OA
ENDBRANCH  42  43
ENDBRANCH  11  42
ENDBRANCH   9  11
ENDBRANCH   5   7
ENDBRANCH   3   5
BRANCH   1  46
ATOM     46  CA  GLY A   5      -9.348  21.299  25.177  0.00  0.00    +0.176 C 
BRANCH  46  48
ATOM     47  C   THR A   4     -10.937  23.011  24.396  0.00  0.00    +0.243 C 
ATOM     48  N   GLY A   5     -10.673  21.919  25.119  0.00  0.00    -0.295 N 
ATOM     49  H   GLY A   5     -11.445  21.489  25.667  0.00  0.00    +0.150 HD
ATOM     50  O   THR A   4     -10.076  23.632  23.775  0.00  0.00    -0.273 OA
BRANCH  47  51
ATOM     51  CA  THR A   4     -12.401  23.494  24.386  0.00  0.00    +0.176 C 
BRANCH  51  53
ATOM     52  C   ASP A   3     -13.585  21.395  24.172  0.00  0.00    +0.241 C 
ATOM     53  N   THR A   4     -13.333  22.480  24.893  0.00  0.00    -0.295 N 
ATOM     54  H   THR A   4     -13.795  22.612  25.815  0.00  0.00    +0.150 HD
ATOM     55  O   ASP A   3     -12.993  21.163  23.124  0.00  0.00    -0.273 OA
BRANCH  52  56
ATOM     56  CA  ASP A   3     -14.604  20.402  24.725  0.00  0.00    +0.160 C 
BRANCH  56  59
ATOM     57  C   LEU A   2     -16.982  20.814  24.965  0.00  0.00    +0.241 C 
ATOM     58  O   LEU A   2     -16.862  21.091  26.165  0.00  0.00    -0.273 OA
ATOM     59  N   ASP A   3     -15.939  20.616  24.165  0.00  0.00    -0.297 N 
ATOM     60  H   ASP A   3     -16.073  20.613  23.134  0.00  0.00    +0.150 HD
BRANCH  57  61
ATOM     61  CA  LEU A   2     -18.368  20.664  24.322  0.00  0.00    +0.149 C 
BRANCH  61  63
ATOM     62  C   LEU A   1     -18.599  18.235  24.519  0.00  0.00    +0.238 C 
ATOM     63  N   LEU A   2     -18.994  19.464  24.872  0.00  0.00    -0.297 N 
ATOM     64  H   LEU A   2     -19.769  19.568  25.558  0.00  0.00    +0.150 HD
ATOM     65  O   LEU A   1     -17.780  18.033  23.625  0.00  0.00    -0.274 OA
BRANCH  62  66
ATOM     66  CA  LEU A   1     -19.221  17.048  25.282  0.00  0.00    +0.145 C 
BRANCH  66  67
ATOM     67  N   LEU A   1     -19.844  16.112  24.339  0.00  0.00    -0.238 NA
ATOM     68  H   LEU A   1     -19.243  15.390  23.892  0.00  0.00    +0.142 HD
ENDBRANCH  66  67
BRANCH  66  69
ATOM     69  CB  LEU A   1     -18.124  16.299  26.055  0.00  0.00    +0.026 C 
BRANCH  69  70
ATOM     70  CG  LEU A   1     -17.368  16.902  27.242  0.00  0.00    +0.002 C 
ATOM     71  CD2 LEU A   1     -18.296  17.056  28.404  0.00  0.00    +0.000 C 
ATOM     72  CD1 LEU A   1     -16.250  15.916  27.611  0.00  0.00    +0.000 C 
ENDBRANCH  69  70
ENDBRANCH  66  69
ENDBRANCH  62  66
ENDBRANCH  61  63
BRANCH  61  73
ATOM     73  CB  LEU A   2     -19.224  21.903  24.576  0.00  0.00    +0.029 C 
BRANCH  73  74
ATOM     74  CG  LEU A   2     -20.626  21.989  23.957  0.00  0.00    +0.002 C 
ATOM     75  CD2 LEU A   2     -21.182  23.370  24.232  0.00  0.00    +0.000 C 
ATOM     76  CD1 LEU A   2     -20.556  21.721  22.472  0.00  0.00    +0.000 C 
ENDBRANCH  73  74
ENDBRANCH  61  73
ENDBRANCH  57  61
ENDBRANCH  56  59
BRANCH  56  77
ATOM     77  CB  ASP A   3     -14.160  18.958  24.442  0.00  0.00    +0.143 C 
BRANCH  77  78
ATOM     78  CG  ASP A   3     -12.867  18.580  25.165  0.00  0.00    +0.367 C 
ATOM     79  OD2 ASP A   3     -12.188  19.460  25.733  0.00  0.00    -0.246 OA
ATOM     80  OD1 ASP A   3     -12.562  17.379  25.204  0.00  0.00    -0.246 OA
ENDBRANCH  77  78
ENDBRANCH  56  77
ENDBRANCH  52  56
ENDBRANCH  51  53
BRANCH  51  81
ATOM     81  CB  THR A   4     -12.495  24.787  25.193  0.00  0.00    +0.137 C 
ATOM     82  CG2 THR A   4     -13.903  25.383  25.098  0.00  0.00    +0.034 C 
BRANCH  81  83
ATOM     83  OG1 THR A   4     -12.200  24.502  26.567  0.00  0.00    -0.382 OA
ATOM     84  HG1 THR A   4     -11.285  24.130  26.637  0.00  0.00    +0.210 HD
ENDBRANCH  81  83
ENDBRANCH  51  81
ENDBRANCH  47  51
ENDBRANCH  46  48
ENDBRANCH   1  46
TORSDOF 35
REMARK  Name = ../refined-set-2016/2pym/2pym_pocket.pdb
REMARK  225 active torsions:
REMARK  status: ('A' for Active; 'I' for Inactive)
REMARK    1  A    between atoms: _1  and  _3
REMARK    2  A    between atoms: _3  and  _4
REMARK    3  A    between atoms: _3  and  _6
REMARK    4  A    between atoms: _6  and  _7
REMARK    5  A    between atoms: _7  and  _8
REMARK    6  A    between atoms: _8  and  _9
REMARK    7  A    between atoms: _18  and  _20
REMARK    8  A    between atoms: _20  and  _21
REMARK    9  A    between atoms: _20  and  _23
REMARK   10  A    between atoms: _23  and  _24
REMARK   11  A    between atoms: _27  and  _29
REMARK   12  A    between atoms: _29  and  _30
REMARK   13  A    between atoms: _29  and  _32
REMARK   14  A    between atoms: _32  and  _33
REMARK   15  A    between atoms: _36  and  _38
REMARK   16  A    between atoms: _38  and  _39
REMARK   17  A    between atoms: _38  and  _41
REMARK   18  A    between atoms: _41  and  _42
REMARK   19  A    between atoms: _45  and  _47
REMARK   20  A    between atoms: _47  and  _48
REMARK   21  A    between atoms: _47  and  _50
REMARK   22  A    between atoms: _50  and  _51
REMARK   23  A    between atoms: _54  and  _56
REMARK   24  A    between atoms: _56  and  _57
REMARK   25  A    between atoms: _59  and  _61
REMARK   26  A    between atoms: _61  and  _62
REMARK   27  A    between atoms: _65  and  _67
REMARK   28  A    between atoms: _67  and  _68
REMARK   29  A    between atoms: _67  and  _70
REMARK   30  A    between atoms: _70  and  _71
REMARK   31  A    between atoms: _74  and  _76
REMARK   32  A    between atoms: _76  and  _77
REMARK   33  A    between atoms: _76  and  _79
REMARK   34  A    between atoms: _79  and  _80
REMARK   35  A    between atoms: _85  and  _87
REMARK   36  A    between atoms: _87  and  _88
REMARK   37  A    between atoms: _87  and  _90
REMARK   38  A    between atoms: _90  and  _91
REMARK   39  A    between atoms: _94  and  _96
REMARK   40  A    between atoms: _96  and  _97
REMARK   41  A    between atoms: _96  and  _99
REMARK   42  A    between atoms: _102  and  _104
REMARK   43  A    between atoms: _104  and  _105
REMARK   44  A    between atoms: _104  and  _107
REMARK   45  A    between atoms: _107  and  _108
REMARK   46  A    between atoms: _108  and  _109
REMARK   47  A    between atoms: _109  and  _110
REMARK   48  A    between atoms: _110  and  _111
REMARK   49  A    between atoms: _115  and  _117
REMARK   50  A    between atoms: _117  and  _118
REMARK   51  A    between atoms: _117  and  _120
REMARK   52  A    between atoms: _120  and  _121
REMARK   53  A    between atoms: _124  and  _126
REMARK   54  A    between atoms: _126  and  _127
REMARK   55  A    between atoms: _129  and  _131
REMARK   56  A    between atoms: _131  and  _132
REMARK   57  A    between atoms: _134  and  _136
REMARK   58  A    between atoms: _136  and  _137
REMARK   59  A    between atoms: _136  and  _139
REMARK   60  A    between atoms: _139  and  _140
REMARK   61  A    between atoms: _143  and  _145
REMARK   62  A    between atoms: _145  and  _146
REMARK   63  A    between atoms: _148  and  _150
REMARK   64  A    between atoms: _150  and  _151
REMARK   65  A    between atoms: _153  and  _155
REMARK   66  A    between atoms: _155  and  _156
REMARK   67  A    between atoms: _155  and  _158
REMARK   68  A    between atoms: _158  and  _159
REMARK   69  A    between atoms: _162  and  _164
REMARK   70  A    between atoms: _164  and  _165
REMARK   71  A    between atoms: _164  and  _167
REMARK   72  A    between atoms: _167  and  _168
REMARK   73  A    between atoms: _172  and  _173
REMARK   74  A    between atoms: _178  and  _180
REMARK   75  A    between atoms: _180  and  _181
REMARK   76  A    between atoms: _180  and  _183
REMARK   77  A    between atoms: _183  and  _184
REMARK   78  A    between atoms: _188  and  _189
REMARK   79  A    between atoms: _194  and  _196
REMARK   80  A    between atoms: _196  and  _197
REMARK   81  A    between atoms: _196  and  _199
REMARK   82  A    between atoms: _202  and  _204
REMARK   83  A    between atoms: _204  and  _205
REMARK   84  A    between atoms: _204  and  _207
REMARK   85  A    between atoms: _207  and  _208
REMARK   86  A    between atoms: _213  and  _215
REMARK   87  A    between atoms: _215  and  _216
REMARK   88  A    between atoms: _215  and  _218
REMARK   89  A    between atoms: _218  and  _219
REMARK   90  A    between atoms: _222  and  _224
REMARK   91  A    between atoms: _224  and  _225
REMARK   92  A    between atoms: _224  and  _227
REMARK   93  A    between atoms: _227  and  _228
REMARK   94  A    between atoms: _231  and  _233
REMARK   95  A    between atoms: _233  and  _234
REMARK   96  A    between atoms: _236  and  _238
REMARK   97  A    between atoms: _238  and  _239
REMARK   98  A    between atoms: _238  and  _241
REMARK   99  A    between atoms: _241  and  _242
REMARK  100  A    between atoms: _242  and  _243
REMARK  101  A    between atoms: _243  and  _244
REMARK  102  A    between atoms: _253  and  _255
REMARK  103  A    between atoms: _255  and  _256
REMARK  104  A    between atoms: _255  and  _258
REMARK  105  A    between atoms: _258  and  _259
REMARK  106  A    between atoms: _262  and  _264
REMARK  107  A    between atoms: _264  and  _265
REMARK  108  A    between atoms: _264  and  _267
REMARK  109  A    between atoms: _267  and  _268
REMARK  110  A    between atoms: _268  and  _269
REMARK  111  A    between atoms: _269  and  _270
REMARK  112  A    between atoms: _279  and  _281
REMARK  113  A    between atoms: _281  and  _282
REMARK  114  A    between atoms: _281  and  _284
REMARK  115  A    between atoms: _284  and  _285
REMARK  116  A    between atoms: _288  and  _290
REMARK  117  A    between atoms: _290  and  _291
REMARK  118  A    between atoms: _290  and  _293
REMARK  119  A    between atoms: _293  and  _294
REMARK  120  A    between atoms: _297  and  _299
REMARK  121  A    between atoms: _299  and  _300
REMARK  122  A    between atoms: _299  and  _302
REMARK  123  A    between atoms: _302  and  _303
REMARK  124  A    between atoms: _306  and  _308
REMARK  125  A    between atoms: _308  and  _309
REMARK  126  A    between atoms: _308  and  _311
REMARK  127  A    between atoms: _311  and  _312
REMARK  128  A    between atoms: _315  and  _317
REMARK  129  A    between atoms: _317  and  _318
REMARK  130  A    between atoms: _317  and  _320
REMARK  131  A    between atoms: _320  and  _321
REMARK  132  A    between atoms: _324  and  _326
REMARK  133  A    between atoms: _326  and  _327
REMARK  134  A    between atoms: _329  and  _331
REMARK  135  A    between atoms: _331  and  _332
REMARK  136  A    between atoms: _335  and  _337
REMARK  137  A    between atoms: _337  and  _338
REMARK  138  A    between atoms: _337  and  _340
REMARK  139  A    between atoms: _340  and  _341
REMARK  140  A    between atoms: _344  and  _346
REMARK  141  A    between atoms: _346  and  _347
REMARK  142  A    between atoms: _346  and  _349
REMARK  143  A    between atoms: _349  and  _350
REMARK  144  A    between atoms: _355  and  _357
REMARK  145  A    between atoms: _357  and  _358
REMARK  146  A    between atoms: _357  and  _360
REMARK  147  A    between atoms: _360  and  _361
REMARK  148  A    between atoms: _364  and  _366
REMARK  149  A    between atoms: _366  and  _367
REMARK  150  A    between atoms: _366  and  _369
REMARK  151  A    between atoms: _372  and  _374
REMARK  152  A    between atoms: _374  and  _375
REMARK  153  A    between atoms: _374  and  _377
REMARK  154  A    between atoms: _377  and  _378
REMARK  155  A    between atoms: _381  and  _383
REMARK  156  A    between atoms: _383  and  _384
REMARK  157  A    between atoms: _383  and  _386
REMARK  158  A    between atoms: _386  and  _387
REMARK  159  A    between atoms: _387  and  _388
REMARK  160  A    between atoms: _388  and  _389
REMARK  161  A    between atoms: _389  and  _390
REMARK  162  A    between atoms: _394  and  _396
REMARK  163  A    between atoms: _396  and  _397
REMARK  164  A    between atoms: _396  and  _399
REMARK  165  A    between atoms: _399  and  _400
REMARK  166  A    between atoms: _400  and  _401
REMARK  167  A    between atoms: _403  and  _405
REMARK  168  A    between atoms: _405  and  _406
REMARK  169  A    between atoms: _405  and  _408
REMARK  170  A    between atoms: _408  and  _409
REMARK  171  A    between atoms: _412  and  _414
REMARK  172  A    between atoms: _414  and  _415
REMARK  173  A    between atoms: _417  and  _419
REMARK  174  A    between atoms: _419  and  _420
REMARK  175  A    between atoms: _422  and  _424
REMARK  176  A    between atoms: _424  and  _425
REMARK  177  A    between atoms: _424  and  _427
REMARK  178  A    between atoms: _427  and  _428
REMARK  179  A    between atoms: _431  and  _433
REMARK  180  A    between atoms: _433  and  _434
REMARK  181  A    between atoms: _436  and  _438
REMARK  182  A    between atoms: _438  and  _439
REMARK  183  A    between atoms: _441  and  _443
REMARK  184  A    between atoms: _443  and  _444
REMARK  185  A    between atoms: _443  and  _446
REMARK  186  A    between atoms: _446  and  _447
REMARK  187  A    between atoms: _453  and  _455
REMARK  188  A    between atoms: _455  and  _456
REMARK  189  A    between atoms: _455  and  _458
REMARK  190  A    between atoms: _458  and  _459
REMARK  191  A    between atoms: _462  and  _464
REMARK  192  A    between atoms: _464  and  _465
REMARK  193  A    between atoms: _464  and  _467
REMARK  194  A    between atoms: _470  and  _472
REMARK  195  A    between atoms: _472  and  _473
REMARK  196  A    between atoms: _472  and  _475
REMARK  197  A    between atoms: _475  and  _476
REMARK  198  A    between atoms: _479  and  _481
REMARK  199  A    between atoms: _481  and  _482
REMARK  200  A    between atoms: _481  and  _484
REMARK  201  A    between atoms: _484  and  _485
REMARK  202  A    between atoms: _489  and  _490
REMARK  203  A    between atoms: _495  and  _497
REMARK  204  A    between atoms: _497  and  _498
REMARK  205  A    between atoms: _497  and  _500
REMARK  206  A    between atoms: _503  and  _505
REMARK  207  A    between atoms: _505  and  _506
REMARK  208  A    between atoms: _505  and  _508
REMARK  209  A    between atoms: _508  and  _509
REMARK  210  A    between atoms: _514  and  _516
REMARK  211  A    between atoms: _516  and  _517
REMARK  212  A    between atoms: _516  and  _519
REMARK  213  A    between atoms: _519  and  _520
REMARK  214  A    between atoms: _523  and  _525
REMARK  215  A    between atoms: _525  and  _526
REMARK  216  A    between atoms: _525  and  _528
REMARK  217  A    between atoms: _528  and  _529
REMARK  218  A    between atoms: _532  and  _534
REMARK  219  A    between atoms: _534  and  _535
REMARK  220  A    between atoms: _537  and  _539
REMARK  221  A    between atoms: _539  and  _540
REMARK  222  A    between atoms: _539  and  _542
REMARK  223  A    between atoms: _542  and  _543
REMARK  224  A    between atoms: _543  and  _544
REMARK  225  A    between atoms: _544  and  _545
REMARK                            x       y       z     vdW  Elec       q    Type
REMARK                         _______ _______ _______ _____ _____    ______ ____
ROOT
ATOM      1  CG  LYS A   1      -5.871  11.217  11.543  0.00  0.00    -0.000 C 
ENDROOT
BRANCH   1   2
ATOM      2  CB  LYS A   1      -6.513   9.854  11.799  0.00  0.00    +0.025 C 
BRANCH   2   3
ATOM      3  CA  LYS A   1      -5.545   8.663  11.812  0.00  0.00    +0.133 C 
BRANCH   3   4
ATOM      4  N   LYS A   1      -6.106   7.574  11.028  0.00  0.00    -0.239 NA
ATOM      5  H   LYS A   1      -6.693   6.858  11.502  0.00  0.00    +0.142 HD
ENDBRANCH   3   4
BRANCH   3   6
ATOM      6  C   LYS A   1      -5.295   8.176  13.235  0.00  0.00    +0.224 C 
ATOM      7  O   LYS A   1      -5.990   7.285  13.723  0.00  0.00    -0.287 OA
ENDBRANCH   3   6
ENDBRANCH   2   3
ENDBRANCH   1   2
BRANCH   1   8
ATOM      8  CD  LYS A   1      -5.784  12.052  12.814  0.00  0.00    -0.024 C 
BRANCH   8   9
ATOM      9  CE  LYS A   1      -5.398  13.496  12.501  0.00  0.00    -0.086 C 
BRANCH   9  10
ATOM     10  NZ  LYS A   1      -4.861  14.233  13.693  0.00  0.00    +0.380 N 
ATOM     11  HZ1 LYS A   1      -5.584  14.254  14.440  0.00  0.00    -0.089 HD
ATOM     12  HZ2 LYS A   1      -4.011  13.748  14.045  0.00  0.00    -0.089 HD
ATOM     13  HZ3 LYS A   1      -4.617  15.206  13.417  0.00  0.00    -0.089 HD
ENDBRANCH   9  10
ENDBRANCH   8   9
ENDBRANCH   1   8
TORSDOF 7
REMARK  Name = ../refined-set-2016/2pym/2pym_pocket.pdb
REMARK  225 active torsions:
REMARK  status: ('A' for Active; 'I' for Inactive)
REMARK    1  A    between atoms: _1  and  _3
REMARK    2  A    between atoms: _3  and  _4
REMARK    3  A    between atoms: _3  and  _6
REMARK    4  A    between atoms: _6  and  _7
REMARK    5  A    between atoms: _7  and  _8
REMARK    6  A    between atoms: _8  and  _9
REMARK    7  A    between atoms: _18  and  _20
REMARK    8  A    between atoms: _20  and  _21
REMARK    9  A    between atoms: _20  and  _23
REMARK   10  A    between atoms: _23  and  _24
REMARK   11  A    between atoms: _27  and  _29
REMARK   12  A    between atoms: _29  and  _30
REMARK   13  A    between atoms: _29  and  _32
REMARK   14  A    between atoms: _32  and  _33
REMARK   15  A    between atoms: _36  and  _38
REMARK   16  A    between atoms: _38  and  _39
REMARK   17  A    between atoms: _38  and  _41
REMARK   18  A    between atoms: _41  and  _42
REMARK   19  A    between atoms: _45  and  _47
REMARK   20  A    between atoms: _47  and  _48
REMARK   21  A    between atoms: _47  and  _50
REMARK   22  A    between atoms: _50  and  _51
REMARK   23  A    between atoms: _54  and  _56
REMARK   24  A    between atoms: _56  and  _57
REMARK   25  A    between atoms: _59  and  _61
REMARK   26  A    between atoms: _61  and  _62
REMARK   27  A    between atoms: _65  and  _67
REMARK   28  A    between atoms: _67  and  _68
REMARK   29  A    between atoms: _67  and  _70
REMARK   30  A    between atoms: _70  and  _71
REMARK   31  A    between atoms: _74  and  _76
REMARK   32  A    between atoms: _76  and  _77
REMARK   33  A    between atoms: _76  and  _79
REMARK   34  A    between atoms: _79  and  _80
REMARK   35  A    between atoms: _85  and  _87
REMARK   36  A    between atoms: _87  and  _88
REMARK   37  A    between atoms: _87  and  _90
REMARK   38  A    between atoms: _90  and  _91
REMARK   39  A    between atoms: _94  and  _96
REMARK   40  A    between atoms: _96  and  _97
REMARK   41  A    between atoms: _96  and  _99
REMARK   42  A    between atoms: _102  and  _104
REMARK   43  A    between atoms: _104  and  _105
REMARK   44  A    between atoms: _104  and  _107
REMARK   45  A    between atoms: _107  and  _108
REMARK   46  A    between atoms: _108  and  _109
REMARK   47  A    between atoms: _109  and  _110
REMARK   48  A    between atoms: _110  and  _111
REMARK   49  A    between atoms: _115  and  _117
REMARK   50  A    between atoms: _117  and  _118
REMARK   51  A    between atoms: _117  and  _120
REMARK   52  A    between atoms: _120  and  _121
REMARK   53  A    between atoms: _124  and  _126
REMARK   54  A    between atoms: _126  and  _127
REMARK   55  A    between atoms: _129  and  _131
REMARK   56  A    between atoms: _131  and  _132
REMARK   57  A    between atoms: _134  and  _136
REMARK   58  A    between atoms: _136  and  _137
REMARK   59  A    between atoms: _136  and  _139
REMARK   60  A    between atoms: _139  and  _140
REMARK   61  A    between atoms: _143  and  _145
REMARK   62  A    between atoms: _145  and  _146
REMARK   63  A    between atoms: _148  and  _150
REMARK   64  A    between atoms: _150  and  _151
REMARK   65  A    between atoms: _153  and  _155
REMARK   66  A    between atoms: _155  and  _156
REMARK   67  A    between atoms: _155  and  _158
REMARK   68  A    between atoms: _158  and  _159
REMARK   69  A    between atoms: _162  and  _164
REMARK   70  A    between atoms: _164  and  _165
REMARK   71  A    between atoms: _164  and  _167
REMARK   72  A    between atoms: _167  and  _168
REMARK   73  A    between atoms: _172  and  _173
REMARK   74  A    between atoms: _178  and  _180
REMARK   75  A    between atoms: _180  and  _181
REMARK   76  A    between atoms: _180  and  _183
REMARK   77  A    between atoms: _183  and  _184
REMARK   78  A    between atoms: _188  and  _189
REMARK   79  A    between atoms: _194  and  _196
REMARK   80  A    between atoms: _196  and  _197
REMARK   81  A    between atoms: _196  and  _199
REMARK   82  A    between atoms: _202  and  _204
REMARK   83  A    between atoms: _204  and  _205
REMARK   84  A    between atoms: _204  and  _207
REMARK   85  A    between atoms: _207  and  _208
REMARK   86  A    between atoms: _213  and  _215
REMARK   87  A    between atoms: _215  and  _216
REMARK   88  A    between atoms: _215  and  _218
REMARK   89  A    between atoms: _218  and  _219
REMARK   90  A    between atoms: _222  and  _224
REMARK   91  A    between atoms: _224  and  _225
REMARK   92  A    between atoms: _224  and  _227
REMARK   93  A    between atoms: _227  and  _228
REMARK   94  A    between atoms: _231  and  _233
REMARK   95  A    between atoms: _233  and  _234
REMARK   96  A    between atoms: _236  and  _238
REMARK   97  A    between atoms: _238  and  _239
REMARK   98  A    between atoms: _238  and  _241
REMARK   99  A    between atoms: _241  and  _242
REMARK  100  A    between atoms: _242  and  _243
REMARK  101  A    between atoms: _243  and  _244
REMARK  102  A    between atoms: _253  and  _255
REMARK  103  A    between atoms: _255  and  _256
REMARK  104  A    between atoms: _255  and  _258
REMARK  105  A    between atoms: _258  and  _259
REMARK  106  A    between atoms: _262  and  _264
REMARK  107  A    between atoms: _264  and  _265
REMARK  108  A    between atoms: _264  and  _267
REMARK  109  A    between atoms: _267  and  _268
REMARK  110  A    between atoms: _268  and  _269
REMARK  111  A    between atoms: _269  and  _270
REMARK  112  A    between atoms: _279  and  _281
REMARK  113  A    between atoms: _281  and  _282
REMARK  114  A    between atoms: _281  and  _284
REMARK  115  A    between atoms: _284  and  _285
REMARK  116  A    between atoms: _288  and  _290
REMARK  117  A    between atoms: _290  and  _291
REMARK  118  A    between atoms: _290  and  _293
REMARK  119  A    between atoms: _293  and  _294
REMARK  120  A    between atoms: _297  and  _299
REMARK  121  A    between atoms: _299  and  _300
REMARK  122  A    between atoms: _299  and  _302
REMARK  123  A    between atoms: _302  and  _303
REMARK  124  A    between atoms: _306  and  _308
REMARK  125  A    between atoms: _308  and  _309
REMARK  126  A    between atoms: _308  and  _311
REMARK  127  A    between atoms: _311  and  _312
REMARK  128  A    between atoms: _315  and  _317
REMARK  129  A    between atoms: _317  and  _318
REMARK  130  A    between atoms: _317  and  _320
REMARK  131  A    between atoms: _320  and  _321
REMARK  132  A    between atoms: _324  and  _326
REMARK  133  A    between atoms: _326  and  _327
REMARK  134  A    between atoms: _329  and  _331
REMARK  135  A    between atoms: _331  and  _332
REMARK  136  A    between atoms: _335  and  _337
REMARK  137  A    between atoms: _337  and  _338
REMARK  138  A    between atoms: _337  and  _340
REMARK  139  A    between atoms: _340  and  _341
REMARK  140  A    between atoms: _344  and  _346
REMARK  141  A    between atoms: _346  and  _347
REMARK  142  A    between atoms: _346  and  _349
REMARK  143  A    between atoms: _349  and  _350
REMARK  144  A    between atoms: _355  and  _357
REMARK  145  A    between atoms: _357  and  _358
REMARK  146  A    between atoms: _357  and  _360
REMARK  147  A    between atoms: _360  and  _361
REMARK  148  A    between atoms: _364  and  _366
REMARK  149  A    between atoms: _366  and  _367
REMARK  150  A    between atoms: _366  and  _369
REMARK  151  A    between atoms: _372  and  _374
REMARK  152  A    between atoms: _374  and  _375
REMARK  153  A    between atoms: _374  and  _377
REMARK  154  A    between atoms: _377  and  _378
REMARK  155  A    between atoms: _381  and  _383
REMARK  156  A    between atoms: _383  and  _384
REMARK  157  A    between atoms: _383  and  _386
REMARK  158  A    between atoms: _386  and  _387
REMARK  159  A    between atoms: _387  and  _388
REMARK  160  A    between atoms: _388  and  _389
REMARK  161  A    between atoms: _389  and  _390
REMARK  162  A    between atoms: _394  and  _396
REMARK  163  A    between atoms: _396  and  _397
REMARK  164  A    between atoms: _396  and  _399
REMARK  165  A    between atoms: _399  and  _400
REMARK  166  A    between atoms: _400  and  _401
REMARK  167  A    between atoms: _403  and  _405
REMARK  168  A    between atoms: _405  and  _406
REMARK  169  A    between atoms: _405  and  _408
REMARK  170  A    between atoms: _408  and  _409
REMARK  171  A    between atoms: _412  and  _414
REMARK  172  A    between atoms: _414  and  _415
REMARK  173  A    between atoms: _417  and  _419
REMARK  174  A    between atoms: _419  and  _420
REMARK  175  A    between atoms: _422  and  _424
REMARK  176  A    between atoms: _424  and  _425
REMARK  177  A    between atoms: _424  and  _427
REMARK  178  A    between atoms: _427  and  _428
REMARK  179  A    between atoms: _431  and  _433
REMARK  180  A    between atoms: _433  and  _434
REMARK  181  A    between atoms: _436  and  _438
REMARK  182  A    between atoms: _438  and  _439
REMARK  183  A    between atoms: _441  and  _443
REMARK  184  A    between atoms: _443  and  _444
REMARK  185  A    between atoms: _443  and  _446
REMARK  186  A    between atoms: _446  and  _447
REMARK  187  A    between atoms: _453  and  _455
REMARK  188  A    between atoms: _455  and  _456
REMARK  189  A    between atoms: _455  and  _458
REMARK  190  A    between atoms: _458  and  _459
REMARK  191  A    between atoms: _462  and  _464
REMARK  192  A    between atoms: _464  and  _465
REMARK  193  A    between atoms: _464  and  _467
REMARK  194  A    between atoms: _470  and  _472
REMARK  195  A    between atoms: _472  and  _473
REMARK  196  A    between atoms: _472  and  _475
REMARK  197  A    between atoms: _475  and  _476
REMARK  198  A    between atoms: _479  and  _481
REMARK  199  A    between atoms: _481  and  _482
REMARK  200  A    between atoms: _481  and  _484
REMARK  201  A    between atoms: _484  and  _485
REMARK  202  A    between atoms: _489  and  _490
REMARK  203  A    between atoms: _495  and  _497
REMARK  204  A    between atoms: _497  and  _498
REMARK  205  A    between atoms: _497  and  _500
REMARK  206  A    between atoms: _503  and  _505
REMARK  207  A    between atoms: _505  and  _506
REMARK  208  A    between atoms: _505  and  _508
REMARK  209  A    between atoms: _508  and  _509
REMARK  210  A    between atoms: _514  and  _516
REMARK  211  A    between atoms: _516  and  _517
REMARK  212  A    between atoms: _516  and  _519
REMARK  213  A    between atoms: _519  and  _520
REMARK  214  A    between atoms: _523  and  _525
REMARK  215  A    between atoms: _525  and  _526
REMARK  216  A    between atoms: _525  and  _528
REMARK  217  A    between atoms: _528  and  _529
REMARK  218  A    between atoms: _532  and  _534
REMARK  219  A    between atoms: _534  and  _535
REMARK  220  A    between atoms: _537  and  _539
REMARK  221  A    between atoms: _539  and  _540
REMARK  222  A    between atoms: _539  and  _542
REMARK  223  A    between atoms: _542  and  _543
REMARK  224  A    between atoms: _543  and  _544
REMARK  225  A    between atoms: _544  and  _545
REMARK                            x       y       z     vdW  Elec       q    Type
REMARK                         _______ _______ _______ _____ _____    ______ ____
ROOT
ATOM      1  C   GLY A   3      -3.927  12.304  25.980  0.00  0.00    +0.243 C 
ATOM      2  N   ILE A   4      -4.511  12.441  27.163  0.00  0.00    -0.297 N 
ATOM      3  H   ILE A   4      -5.442  12.900  27.233  0.00  0.00    +0.150 HD
ATOM      4  O   GLY A   3      -2.756  11.935  25.847  0.00  0.00    -0.273 OA
ENDROOT
BRANCH   2   5
ATOM      5  CA  ILE A   4      -3.851  11.950  28.363  0.00  0.00    +0.149 C 
BRANCH   5   6
ATOM      6  C   ILE A   4      -3.850  10.419  28.329  0.00  0.00    +0.241 C 
ATOM      7  N   GLY A   5      -2.735   9.824  28.724  0.00  0.00    -0.295 N 
ATOM      8  H   GLY A   5      -1.887  10.397  28.907  0.00  0.00    +0.150 HD
ATOM      9  O   ILE A   4      -4.831   9.794  27.906  0.00  0.00    -0.273 OA
BRANCH   7  10
ATOM     10  CA  GLY A   5      -2.676   8.377  28.907  0.00  0.00    +0.176 C 
BRANCH  10  11
ATOM     11  C   GLY A   5      -2.166   7.572  27.731  0.00  0.00    +0.243 C 
ATOM     12  O   GLY A   5      -1.523   6.543  27.920  0.00  0.00    -0.273 OA
ATOM     13  N   GLY A   6      -2.456   8.025  26.519  0.00  0.00    -0.296 N 
ATOM     14  H   GLY A   6      -3.009   8.899  26.415  0.00  0.00    +0.150 HD
BRANCH  13  15
ATOM     15  CA  GLY A   6      -2.008   7.311  25.332  0.00  0.00    +0.163 C 
BRANCH  15  16
ATOM     16  C   GLY A   6      -2.649   7.802  24.052  0.00  0.00    +0.229 C 
ATOM     17  O   GLY A   6      -3.107   8.945  23.969  0.00  0.00    -0.286 OA
ENDBRANCH  15  16
ENDBRANCH  13  15
ENDBRANCH  10  11
ENDBRANCH   7  10
ENDBRANCH   5   6
BRANCH   5  18
ATOM     18  CB  ILE A   4      -4.497  12.501  29.651  0.00  0.00    +0.027 C 
ATOM     19  CG2 ILE A   4      -4.533  11.431  30.743  0.00  0.00    +0.002 C 
BRANCH  18  20
ATOM     20  CG1 ILE A   4      -3.706  13.728  30.124  0.00  0.00    +0.002 C 
ATOM     21  CD1 ILE A   4      -4.108  14.279  31.469  0.00  0.00    +0.000 C 
ENDBRANCH  18  20
ENDBRANCH   5  18
ENDBRANCH   2   5
BRANCH   1  22
ATOM     22  CA  GLY A   3      -4.771  12.620  24.771  0.00  0.00    +0.176 C 
BRANCH  22  24
ATOM     23  C   GLY A   2      -4.051  12.260  22.474  0.00  0.00    +0.243 C 
ATOM     24  N   GLY A   3      -4.298  11.774  23.684  0.00  0.00    -0.295 N 
ATOM     25  H   GLY A   3      -4.150  10.760  23.861  0.00  0.00    +0.150 HD
ATOM     26  O   GLY A   2      -4.367  13.396  22.116  0.00  0.00    -0.273 OA
BRANCH  23  27
ATOM     27  CA  GLY A   2      -3.373  11.311  21.524  0.00  0.00    +0.176 C 
BRANCH  27  29
ATOM     28  C   ILE A   1      -4.506  10.592  19.513  0.00  0.00    +0.238 C 
ATOM     29  N   GLY A   2      -3.806  11.513  20.158  0.00  0.00    -0.296 N 
ATOM     30  H   GLY A   2      -3.562  12.400  19.673  0.00  0.00    +0.150 HD
ATOM     31  O   ILE A   1      -4.848   9.518  20.021  0.00  0.00    -0.274 OA
BRANCH  28  32
ATOM     32  CA  ILE A   1      -4.863  10.930  18.074  0.00  0.00    +0.145 C 
BRANCH  32  33
ATOM     33  CB  ILE A   1      -6.244  11.645  18.021  0.00  0.00    +0.025 C 
ATOM     34  CG2 ILE A   1      -6.517  12.199  16.622  0.00  0.00    +0.002 C 
BRANCH  33  35
ATOM     35  CG1 ILE A   1      -7.353  10.714  18.511  0.00  0.00    +0.002 C 
ATOM     36  CD1 ILE A   1      -8.755  11.244  18.334  0.00  0.00    +0.000 C 
ENDBRANCH  33  35
ENDBRANCH  32  33
BRANCH  32  37
ATOM     37  N   ILE A   1      -4.798   9.746  17.213  0.00  0.00    -0.238 NA
ATOM     38  H   ILE A   1      -5.324   8.889  17.478  0.00  0.00    +0.142 HD
ENDBRANCH  32  37
ENDBRANCH  28  32
ENDBRANCH  27  29
ENDBRANCH  23  27
ENDBRANCH  22  24
ENDBRANCH   1  22
TORSDOF 16
REMARK  Name = ../refined-set-2016/2pym/2pym_pocket.pdb
REMARK  225 active torsions:
REMARK  status: ('A' for Active; 'I' for Inactive)
REMARK    1  A    between atoms: _1  and  _3
REMARK    2  A    between atoms: _3  and  _4
REMARK    3  A    between atoms: _3  and  _6
REMARK    4  A    between atoms: _6  and  _7
REMARK    5  A    between atoms: _7  and  _8
REMARK    6  A    between atoms: _8  and  _9
REMARK    7  A    between atoms: _18  and  _20
REMARK    8  A    between atoms: _20  and  _21
REMARK    9  A    between atoms: _20  and  _23
REMARK   10  A    between atoms: _23  and  _24
REMARK   11  A    between atoms: _27  and  _29
REMARK   12  A    between atoms: _29  and  _30
REMARK   13  A    between atoms: _29  and  _32
REMARK   14  A    between atoms: _32  and  _33
REMARK   15  A    between atoms: _36  and  _38
REMARK   16  A    between atoms: _38  and  _39
REMARK   17  A    between atoms: _38  and  _41
REMARK   18  A    between atoms: _41  and  _42
REMARK   19  A    between atoms: _45  and  _47
REMARK   20  A    between atoms: _47  and  _48
REMARK   21  A    between atoms: _47  and  _50
REMARK   22  A    between atoms: _50  and  _51
REMARK   23  A    between atoms: _54  and  _56
REMARK   24  A    between atoms: _56  and  _57
REMARK   25  A    between atoms: _59  and  _61
REMARK   26  A    between atoms: _61  and  _62
REMARK   27  A    between atoms: _65  and  _67
REMARK   28  A    between atoms: _67  and  _68
REMARK   29  A    between atoms: _67  and  _70
REMARK   30  A    between atoms: _70  and  _71
REMARK   31  A    between atoms: _74  and  _76
REMARK   32  A    between atoms: _76  and  _77
REMARK   33  A    between atoms: _76  and  _79
REMARK   34  A    between atoms: _79  and  _80
REMARK   35  A    between atoms: _85  and  _87
REMARK   36  A    between atoms: _87  and  _88
REMARK   37  A    between atoms: _87  and  _90
REMARK   38  A    between atoms: _90  and  _91
REMARK   39  A    between atoms: _94  and  _96
REMARK   40  A    between atoms: _96  and  _97
REMARK   41  A    between atoms: _96  and  _99
REMARK   42  A    between atoms: _102  and  _104
REMARK   43  A    between atoms: _104  and  _105
REMARK   44  A    between atoms: _104  and  _107
REMARK   45  A    between atoms: _107  and  _108
REMARK   46  A    between atoms: _108  and  _109
REMARK   47  A    between atoms: _109  and  _110
REMARK   48  A    between atoms: _110  and  _111
REMARK   49  A    between atoms: _115  and  _117
REMARK   50  A    between atoms: _117  and  _118
REMARK   51  A    between atoms: _117  and  _120
REMARK   52  A    between atoms: _120  and  _121
REMARK   53  A    between atoms: _124  and  _126
REMARK   54  A    between atoms: _126  and  _127
REMARK   55  A    between atoms: _129  and  _131
REMARK   56  A    between atoms: _131  and  _132
REMARK   57  A    between atoms: _134  and  _136
REMARK   58  A    between atoms: _136  and  _137
REMARK   59  A    between atoms: _136  and  _139
REMARK   60  A    between atoms: _139  and  _140
REMARK   61  A    between atoms: _143  and  _145
REMARK   62  A    between atoms: _145  and  _146
REMARK   63  A    between atoms: _148  and  _150
REMARK   64  A    between atoms: _150  and  _151
REMARK   65  A    between atoms: _153  and  _155
REMARK   66  A    between atoms: _155  and  _156
REMARK   67  A    between atoms: _155  and  _158
REMARK   68  A    between atoms: _158  and  _159
REMARK   69  A    between atoms: _162  and  _164
REMARK   70  A    between atoms: _164  and  _165
REMARK   71  A    between atoms: _164  and  _167
REMARK   72  A    between atoms: _167  and  _168
REMARK   73  A    between atoms: _172  and  _173
REMARK   74  A    between atoms: _178  and  _180
REMARK   75  A    between atoms: _180  and  _181
REMARK   76  A    between atoms: _180  and  _183
REMARK   77  A    between atoms: _183  and  _184
REMARK   78  A    between atoms: _188  and  _189
REMARK   79  A    between atoms: _194  and  _196
REMARK   80  A    between atoms: _196  and  _197
REMARK   81  A    between atoms: _196  and  _199
REMARK   82  A    between atoms: _202  and  _204
REMARK   83  A    between atoms: _204  and  _205
REMARK   84  A    between atoms: _204  and  _207
REMARK   85  A    between atoms: _207  and  _208
REMARK   86  A    between atoms: _213  and  _215
REMARK   87  A    between atoms: _215  and  _216
REMARK   88  A    between atoms: _215  and  _218
REMARK   89  A    between atoms: _218  and  _219
REMARK   90  A    between atoms: _222  and  _224
REMARK   91  A    between atoms: _224  and  _225
REMARK   92  A    between atoms: _224  and  _227
REMARK   93  A    between atoms: _227  and  _228
REMARK   94  A    between atoms: _231  and  _233
REMARK   95  A    between atoms: _233  and  _234
REMARK   96  A    between atoms: _236  and  _238
REMARK   97  A    between atoms: _238  and  _239
REMARK   98  A    between atoms: _238  and  _241
REMARK   99  A    between atoms: _241  and  _242
REMARK  100  A    between atoms: _242  and  _243
REMARK  101  A    between atoms: _243  and  _244
REMARK  102  A    between atoms: _253  and  _255
REMARK  103  A    between atoms: _255  and  _256
REMARK  104  A    between atoms: _255  and  _258
REMARK  105  A    between atoms: _258  and  _259
REMARK  106  A    between atoms: _262  and  _264
REMARK  107  A    between atoms: _264  and  _265
REMARK  108  A    between atoms: _264  and  _267
REMARK  109  A    between atoms: _267  and  _268
REMARK  110  A    between atoms: _268  and  _269
REMARK  111  A    between atoms: _269  and  _270
REMARK  112  A    between atoms: _279  and  _281
REMARK  113  A    between atoms: _281  and  _282
REMARK  114  A    between atoms: _281  and  _284
REMARK  115  A    between atoms: _284  and  _285
REMARK  116  A    between atoms: _288  and  _290
REMARK  117  A    between atoms: _290  and  _291
REMARK  118  A    between atoms: _290  and  _293
REMARK  119  A    between atoms: _293  and  _294
REMARK  120  A    between atoms: _297  and  _299
REMARK  121  A    between atoms: _299  and  _300
REMARK  122  A    between atoms: _299  and  _302
REMARK  123  A    between atoms: _302  and  _303
REMARK  124  A    between atoms: _306  and  _308
REMARK  125  A    between atoms: _308  and  _309
REMARK  126  A    between atoms: _308  and  _311
REMARK  127  A    between atoms: _311  and  _312
REMARK  128  A    between atoms: _315  and  _317
REMARK  129  A    between atoms: _317  and  _318
REMARK  130  A    between atoms: _317  and  _320
REMARK  131  A    between atoms: _320  and  _321
REMARK  132  A    between atoms: _324  and  _326
REMARK  133  A    between atoms: _326  and  _327
REMARK  134  A    between atoms: _329  and  _331
REMARK  135  A    between atoms: _331  and  _332
REMARK  136  A    between atoms: _335  and  _337
REMARK  137  A    between atoms: _337  and  _338
REMARK  138  A    between atoms: _337  and  _340
REMARK  139  A    between atoms: _340  and  _341
REMARK  140  A    between atoms: _344  and  _346
REMARK  141  A    between atoms: _346  and  _347
REMARK  142  A    between atoms: _346  and  _349
REMARK  143  A    between atoms: _349  and  _350
REMARK  144  A    between atoms: _355  and  _357
REMARK  145  A    between atoms: _357  and  _358
REMARK  146  A    between atoms: _357  and  _360
REMARK  147  A    between atoms: _360  and  _361
REMARK  148  A    between atoms: _364  and  _366
REMARK  149  A    between atoms: _366  and  _367
REMARK  150  A    between atoms: _366  and  _369
REMARK  151  A    between atoms: _372  and  _374
REMARK  152  A    between atoms: _374  and  _375
REMARK  153  A    between atoms: _374  and  _377
REMARK  154  A    between atoms: _377  and  _378
REMARK  155  A    between atoms: _381  and  _383
REMARK  156  A    between atoms: _383  and  _384
REMARK  157  A    between atoms: _383  and  _386
REMARK  158  A    between atoms: _386  and  _387
REMARK  159  A    between atoms: _387  and  _388
REMARK  160  A    between atoms: _388  and  _389
REMARK  161  A    between atoms: _389  and  _390
REMARK  162  A    between atoms: _394  and  _396
REMARK  163  A    between atoms: _396  and  _397
REMARK  164  A    between atoms: _396  and  _399
REMARK  165  A    between atoms: _399  and  _400
REMARK  166  A    between atoms: _400  and  _401
REMARK  167  A    between atoms: _403  and  _405
REMARK  168  A    between atoms: _405  and  _406
REMARK  169  A    between atoms: _405  and  _408
REMARK  170  A    between atoms: _408  and  _409
REMARK  171  A    between atoms: _412  and  _414
REMARK  172  A    between atoms: _414  and  _415
REMARK  173  A    between atoms: _417  and  _419
REMARK  174  A    between atoms: _419  and  _420
REMARK  175  A    between atoms: _422  and  _424
REMARK  176  A    between atoms: _424  and  _425
REMARK  177  A    between atoms: _424  and  _427
REMARK  178  A    between atoms: _427  and  _428
REMARK  179  A    between atoms: _431  and  _433
REMARK  180  A    between atoms: _433  and  _434
REMARK  181  A    between atoms: _436  and  _438
REMARK  182  A    between atoms: _438  and  _439
REMARK  183  A    between atoms: _441  and  _443
REMARK  184  A    between atoms: _443  and  _444
REMARK  185  A    between atoms: _443  and  _446
REMARK  186  A    between atoms: _446  and  _447
REMARK  187  A    between atoms: _453  and  _455
REMARK  188  A    between atoms: _455  and  _456
REMARK  189  A    between atoms: _455  and  _458
REMARK  190  A    between atoms: _458  and  _459
REMARK  191  A    between atoms: _462  and  _464
REMARK  192  A    between atoms: _464  and  _465
REMARK  193  A    between atoms: _464  and  _467
REMARK  194  A    between atoms: _470  and  _472
REMARK  195  A    between atoms: _472  and  _473
REMARK  196  A    between atoms: _472  and  _475
REMARK  197  A    between atoms: _475  and  _476
REMARK  198  A    between atoms: _479  and  _481
REMARK  199  A    between atoms: _481  and  _482
REMARK  200  A    between atoms: _481  and  _484
REMARK  201  A    between atoms: _484  and  _485
REMARK  202  A    between atoms: _489  and  _490
REMARK  203  A    between atoms: _495  and  _497
REMARK  204  A    between atoms: _497  and  _498
REMARK  205  A    between atoms: _497  and  _500
REMARK  206  A    between atoms: _503  and  _505
REMARK  207  A    between atoms: _505  and  _506
REMARK  208  A    between atoms: _505  and  _508
REMARK  209  A    between atoms: _508  and  _509
REMARK  210  A    between atoms: _514  and  _516
REMARK  211  A    between atoms: _516  and  _517
REMARK  212  A    between atoms: _516  and  _519
REMARK  213  A    between atoms: _519  and  _520
REMARK  214  A    between atoms: _523  and  _525
REMARK  215  A    between atoms: _525  and  _526
REMARK  216  A    between atoms: _525  and  _528
REMARK  217  A    between atoms: _528  and  _529
REMARK  218  A    between atoms: _532  and  _534
REMARK  219  A    between atoms: _534  and  _535
REMARK  220  A    between atoms: _537  and  _539
REMARK  221  A    between atoms: _539  and  _540
REMARK  222  A    between atoms: _539  and  _542
REMARK  223  A    between atoms: _542  and  _543
REMARK  224  A    between atoms: _543  and  _544
REMARK  225  A    between atoms: _544  and  _545
REMARK                            x       y       z     vdW  Elec       q    Type
REMARK                         _______ _______ _______ _____ _____    ______ ____
ROOT
ATOM      1  CA  ILE A   1      -6.204   5.785  19.861  0.00  0.00    +0.133 C 
ENDROOT
BRANCH   1   2
ATOM      2  N   ILE A   1      -5.211   6.665  20.461  0.00  0.00    -0.239 NA
ATOM      3  H   ILE A   1      -5.195   7.666  20.181  0.00  0.00    +0.142 HD
ENDBRANCH   1   2
BRANCH   1   4
ATOM      4  CB  ILE A   1      -7.634   6.032  20.392  0.00  0.00    +0.023 C 
ATOM      5  CG2 ILE A   1      -7.739   5.601  21.863  0.00  0.00    +0.002 C 
BRANCH   4   6
ATOM      6  CG1 ILE A   1      -8.075   7.478  20.142  0.00  0.00    +0.002 C 
ATOM      7  CD1 ILE A   1      -9.567   7.725  20.314  0.00  0.00    +0.000 C 
ENDBRANCH   4   6
ENDBRANCH   1   4
BRANCH   1   8
ATOM      8  C   ILE A   1      -6.184   5.926  18.343  0.00  0.00    +0.224 C 
ATOM      9  O   ILE A   1      -5.846   6.990  17.818  0.00  0.00    -0.287 OA
ENDBRANCH   1   8
TORSDOF 4
REMARK  Name = ../refined-set-2016/2pym/2pym_pocket.pdb
REMARK  225 active torsions:
REMARK  status: ('A' for Active; 'I' for Inactive)
REMARK    1  A    between atoms: _1  and  _3
REMARK    2  A    between atoms: _3  and  _4
REMARK    3  A    between atoms: _3  and  _6
REMARK    4  A    between atoms: _6  and  _7
REMARK    5  A    between atoms: _7  and  _8
REMARK    6  A    between atoms: _8  and  _9
REMARK    7  A    between atoms: _18  and  _20
REMARK    8  A    between atoms: _20  and  _21
REMARK    9  A    between atoms: _20  and  _23
REMARK   10  A    between atoms: _23  and  _24
REMARK   11  A    between atoms: _27  and  _29
REMARK   12  A    between atoms: _29  and  _30
REMARK   13  A    between atoms: _29  and  _32
REMARK   14  A    between atoms: _32  and  _33
REMARK   15  A    between atoms: _36  and  _38
REMARK   16  A    between atoms: _38  and  _39
REMARK   17  A    between atoms: _38  and  _41
REMARK   18  A    between atoms: _41  and  _42
REMARK   19  A    between atoms: _45  and  _47
REMARK   20  A    between atoms: _47  and  _48
REMARK   21  A    between atoms: _47  and  _50
REMARK   22  A    between atoms: _50  and  _51
REMARK   23  A    between atoms: _54  and  _56
REMARK   24  A    between atoms: _56  and  _57
REMARK   25  A    between atoms: _59  and  _61
REMARK   26  A    between atoms: _61  and  _62
REMARK   27  A    between atoms: _65  and  _67
REMARK   28  A    between atoms: _67  and  _68
REMARK   29  A    between atoms: _67  and  _70
REMARK   30  A    between atoms: _70  and  _71
REMARK   31  A    between atoms: _74  and  _76
REMARK   32  A    between atoms: _76  and  _77
REMARK   33  A    between atoms: _76  and  _79
REMARK   34  A    between atoms: _79  and  _80
REMARK   35  A    between atoms: _85  and  _87
REMARK   36  A    between atoms: _87  and  _88
REMARK   37  A    between atoms: _87  and  _90
REMARK   38  A    between atoms: _90  and  _91
REMARK   39  A    between atoms: _94  and  _96
REMARK   40  A    between atoms: _96  and  _97
REMARK   41  A    between atoms: _96  and  _99
REMARK   42  A    between atoms: _102  and  _104
REMARK   43  A    between atoms: _104  and  _105
REMARK   44  A    between atoms: _104  and  _107
REMARK   45  A    between atoms: _107  and  _108
REMARK   46  A    between atoms: _108  and  _109
REMARK   47  A    between atoms: _109  and  _110
REMARK   48  A    between atoms: _110  and  _111
REMARK   49  A    between atoms: _115  and  _117
REMARK   50  A    between atoms: _117  and  _118
REMARK   51  A    between atoms: _117  and  _120
REMARK   52  A    between atoms: _120  and  _121
REMARK   53  A    between atoms: _124  and  _126
REMARK   54  A    between atoms: _126  and  _127
REMARK   55  A    between atoms: _129  and  _131
REMARK   56  A    between atoms: _131  and  _132
REMARK   57  A    between atoms: _134  and  _136
REMARK   58  A    between atoms: _136  and  _137
REMARK   59  A    between atoms: _136  and  _139
REMARK   60  A    between atoms: _139  and  _140
REMARK   61  A    between atoms: _143  and  _145
REMARK   62  A    between atoms: _145  and  _146
REMARK   63  A    between atoms: _148  and  _150
REMARK   64  A    between atoms: _150  and  _151
REMARK   65  A    between atoms: _153  and  _155
REMARK   66  A    between atoms: _155  and  _156
REMARK   67  A    between atoms: _155  and  _158
REMARK   68  A    between atoms: _158  and  _159
REMARK   69  A    between atoms: _162  and  _164
REMARK   70  A    between atoms: _164  and  _165
REMARK   71  A    between atoms: _164  and  _167
REMARK   72  A    between atoms: _167  and  _168
REMARK   73  A    between atoms: _172  and  _173
REMARK   74  A    between atoms: _178  and  _180
REMARK   75  A    between atoms: _180  and  _181
REMARK   76  A    between atoms: _180  and  _183
REMARK   77  A    between atoms: _183  and  _184
REMARK   78  A    between atoms: _188  and  _189
REMARK   79  A    between atoms: _194  and  _196
REMARK   80  A    between atoms: _196  and  _197
REMARK   81  A    between atoms: _196  and  _199
REMARK   82  A    between atoms: _202  and  _204
REMARK   83  A    between atoms: _204  and  _205
REMARK   84  A    between atoms: _204  and  _207
REMARK   85  A    between atoms: _207  and  _208
REMARK   86  A    between atoms: _213  and  _215
REMARK   87  A    between atoms: _215  and  _216
REMARK   88  A    between atoms: _215  and  _218
REMARK   89  A    between atoms: _218  and  _219
REMARK   90  A    between atoms: _222  and  _224
REMARK   91  A    between atoms: _224  and  _225
REMARK   92  A    between atoms: _224  and  _227
REMARK   93  A    between atoms: _227  and  _228
REMARK   94  A    between atoms: _231  and  _233
REMARK   95  A    between atoms: _233  and  _234
REMARK   96  A    between atoms: _236  and  _238
REMARK   97  A    between atoms: _238  and  _239
REMARK   98  A    between atoms: _238  and  _241
REMARK   99  A    between atoms: _241  and  _242
REMARK  100  A    between atoms: _242  and  _243
REMARK  101  A    between atoms: _243  and  _244
REMARK  102  A    between atoms: _253  and  _255
REMARK  103  A    between atoms: _255  and  _256
REMARK  104  A    between atoms: _255  and  _258
REMARK  105  A    between atoms: _258  and  _259
REMARK  106  A    between atoms: _262  and  _264
REMARK  107  A    between atoms: _264  and  _265
REMARK  108  A    between atoms: _264  and  _267
REMARK  109  A    between atoms: _267  and  _268
REMARK  110  A    between atoms: _268  and  _269
REMARK  111  A    between atoms: _269  and  _270
REMARK  112  A    between atoms: _279  and  _281
REMARK  113  A    between atoms: _281  and  _282
REMARK  114  A    between atoms: _281  and  _284
REMARK  115  A    between atoms: _284  and  _285
REMARK  116  A    between atoms: _288  and  _290
REMARK  117  A    between atoms: _290  and  _291
REMARK  118  A    between atoms: _290  and  _293
REMARK  119  A    between atoms: _293  and  _294
REMARK  120  A    between atoms: _297  and  _299
REMARK  121  A    between atoms: _299  and  _300
REMARK  122  A    between atoms: _299  and  _302
REMARK  123  A    between atoms: _302  and  _303
REMARK  124  A    between atoms: _306  and  _308
REMARK  125  A    between atoms: _308  and  _309
REMARK  126  A    between atoms: _308  and  _311
REMARK  127  A    between atoms: _311  and  _312
REMARK  128  A    between atoms: _315  and  _317
REMARK  129  A    between atoms: _317  and  _318
REMARK  130  A    between atoms: _317  and  _320
REMARK  131  A    between atoms: _320  and  _321
REMARK  132  A    between atoms: _324  and  _326
REMARK  133  A    between atoms: _326  and  _327
REMARK  134  A    between atoms: _329  and  _331
REMARK  135  A    between atoms: _331  and  _332
REMARK  136  A    between atoms: _335  and  _337
REMARK  137  A    between atoms: _337  and  _338
REMARK  138  A    between atoms: _337  and  _340
REMARK  139  A    between atoms: _340  and  _341
REMARK  140  A    between atoms: _344  and  _346
REMARK  141  A    between atoms: _346  and  _347
REMARK  142  A    between atoms: _346  and  _349
REMARK  143  A    between atoms: _349  and  _350
REMARK  144  A    between atoms: _355  and  _357
REMARK  145  A    between atoms: _357  and  _358
REMARK  146  A    between atoms: _357  and  _360
REMARK  147  A    between atoms: _360  and  _361
REMARK  148  A    between atoms: _364  and  _366
REMARK  149  A    between atoms: _366  and  _367
REMARK  150  A    between atoms: _366  and  _369
REMARK  151  A    between atoms: _372  and  _374
REMARK  152  A    between atoms: _374  and  _375
REMARK  153  A    between atoms: _374  and  _377
REMARK  154  A    between atoms: _377  and  _378
REMARK  155  A    between atoms: _381  and  _383
REMARK  156  A    between atoms: _383  and  _384
REMARK  157  A    between atoms: _383  and  _386
REMARK  158  A    between atoms: _386  and  _387
REMARK  159  A    between atoms: _387  and  _388
REMARK  160  A    between atoms: _388  and  _389
REMARK  161  A    between atoms: _389  and  _390
REMARK  162  A    between atoms: _394  and  _396
REMARK  163  A    between atoms: _396  and  _397
REMARK  164  A    between atoms: _396  and  _399
REMARK  165  A    between atoms: _399  and  _400
REMARK  166  A    between atoms: _400  and  _401
REMARK  167  A    between atoms: _403  and  _405
REMARK  168  A    between atoms: _405  and  _406
REMARK  169  A    between atoms: _405  and  _408
REMARK  170  A    between atoms: _408  and  _409
REMARK  171  A    between atoms: _412  and  _414
REMARK  172  A    between atoms: _414  and  _415
REMARK  173  A    between atoms: _417  and  _419
REMARK  174  A    between atoms: _419  and  _420
REMARK  175  A    between atoms: _422  and  _424
REMARK  176  A    between atoms: _424  and  _425
REMARK  177  A    between atoms: _424  and  _427
REMARK  178  A    between atoms: _427  and  _428
REMARK  179  A    between atoms: _431  and  _433
REMARK  180  A    between atoms: _433  and  _434
REMARK  181  A    between atoms: _436  and  _438
REMARK  182  A    between atoms: _438  and  _439
REMARK  183  A    between atoms: _441  and  _443
REMARK  184  A    between atoms: _443  and  _444
REMARK  185  A    between atoms: _443  and  _446
REMARK  186  A    between atoms: _446  and  _447
REMARK  187  A    between atoms: _453  and  _455
REMARK  188  A    between atoms: _455  and  _456
REMARK  189  A    between atoms: _455  and  _458
REMARK  190  A    between atoms: _458  and  _459
REMARK  191  A    between atoms: _462  and  _464
REMARK  192  A    between atoms: _464  and  _465
REMARK  193  A    between atoms: _464  and  _467
REMARK  194  A    between atoms: _470  and  _472
REMARK  195  A    between atoms: _472  and  _473
REMARK  196  A    between atoms: _472  and  _475
REMARK  197  A    between atoms: _475  and  _476
REMARK  198  A    between atoms: _479  and  _481
REMARK  199  A    between atoms: _481  and  _482
REMARK  200  A    between atoms: _481  and  _484
REMARK  201  A    between atoms: _484  and  _485
REMARK  202  A    between atoms: _489  and  _490
REMARK  203  A    between atoms: _495  and  _497
REMARK  204  A    between atoms: _497  and  _498
REMARK  205  A    between atoms: _497  and  _500
REMARK  206  A    between atoms: _503  and  _505
REMARK  207  A    between atoms: _505  and  _506
REMARK  208  A    between atoms: _505  and  _508
REMARK  209  A    between atoms: _508  and  _509
REMARK  210  A    between atoms: _514  and  _516
REMARK  211  A    between atoms: _516  and  _517
REMARK  212  A    between atoms: _516  and  _519
REMARK  213  A    between atoms: _519  and  _520
REMARK  214  A    between atoms: _523  and  _525
REMARK  215  A    between atoms: _525  and  _526
REMARK  216  A    between atoms: _525  and  _528
REMARK  217  A    between atoms: _528  and  _529
REMARK  218  A    between atoms: _532  and  _534
REMARK  219  A    between atoms: _534  and  _535
REMARK  220  A    between atoms: _537  and  _539
REMARK  221  A    between atoms: _539  and  _540
REMARK  222  A    between atoms: _539  and  _542
REMARK  223  A    between atoms: _542  and  _543
REMARK  224  A    between atoms: _543  and  _544
REMARK  225  A    between atoms: _544  and  _545
REMARK                            x       y       z     vdW  Elec       q    Type
REMARK                         _______ _______ _______ _____ _____    ______ ____
ROOT
ATOM      1  CA  LEU A   1     -12.977  11.524  13.729  0.00  0.00    +0.133 C 
ENDROOT
BRANCH   1   2
ATOM      2  N   LEU A   1     -13.763  12.731  13.455  0.00  0.00    -0.239 NA
ATOM      3  H   LEU A   1     -13.887  13.436  14.210  0.00  0.00    +0.142 HD
ENDBRANCH   1   2
BRANCH   1   4
ATOM      4  C   LEU A   1     -13.840  10.465  14.418  0.00  0.00    +0.224 C 
ATOM      5  O   LEU A   1     -14.608  10.780  15.322  0.00  0.00    -0.287 OA
ENDBRANCH   1   4
BRANCH   1   6
ATOM      6  CB  LEU A   1     -11.750  11.867  14.591  0.00  0.00    +0.025 C 
BRANCH   6   7
ATOM      7  CG  LEU A   1     -10.492  12.366  13.895  0.00  0.00    +0.002 C 
ATOM      8  CD2 LEU A   1      -9.632  13.190  14.851  0.00  0.00    +0.000 C 
ATOM      9  CD1 LEU A   1     -10.711  13.098  12.557  0.00  0.00    +0.000 C 
ENDBRANCH   6   7
ENDBRANCH   1   6
TORSDOF 4
REMARK  Name = ../refined-set-2016/2pym/2pym_pocket.pdb
REMARK  225 active torsions:
REMARK  status: ('A' for Active; 'I' for Inactive)
REMARK    1  A    between atoms: _1  and  _3
REMARK    2  A    between atoms: _3  and  _4
REMARK    3  A    between atoms: _3  and  _6
REMARK    4  A    between atoms: _6  and  _7
REMARK    5  A    between atoms: _7  and  _8
REMARK    6  A    between atoms: _8  and  _9
REMARK    7  A    between atoms: _18  and  _20
REMARK    8  A    between atoms: _20  and  _21
REMARK    9  A    between atoms: _20  and  _23
REMARK   10  A    between atoms: _23  and  _24
REMARK   11  A    between atoms: _27  and  _29
REMARK   12  A    between atoms: _29  and  _30
REMARK   13  A    between atoms: _29  and  _32
REMARK   14  A    between atoms: _32  and  _33
REMARK   15  A    between atoms: _36  and  _38
REMARK   16  A    between atoms: _38  and  _39
REMARK   17  A    between atoms: _38  and  _41
REMARK   18  A    between atoms: _41  and  _42
REMARK   19  A    between atoms: _45  and  _47
REMARK   20  A    between atoms: _47  and  _48
REMARK   21  A    between atoms: _47  and  _50
REMARK   22  A    between atoms: _50  and  _51
REMARK   23  A    between atoms: _54  and  _56
REMARK   24  A    between atoms: _56  and  _57
REMARK   25  A    between atoms: _59  and  _61
REMARK   26  A    between atoms: _61  and  _62
REMARK   27  A    between atoms: _65  and  _67
REMARK   28  A    between atoms: _67  and  _68
REMARK   29  A    between atoms: _67  and  _70
REMARK   30  A    between atoms: _70  and  _71
REMARK   31  A    between atoms: _74  and  _76
REMARK   32  A    between atoms: _76  and  _77
REMARK   33  A    between atoms: _76  and  _79
REMARK   34  A    between atoms: _79  and  _80
REMARK   35  A    between atoms: _85  and  _87
REMARK   36  A    between atoms: _87  and  _88
REMARK   37  A    between atoms: _87  and  _90
REMARK   38  A    between atoms: _90  and  _91
REMARK   39  A    between atoms: _94  and  _96
REMARK   40  A    between atoms: _96  and  _97
REMARK   41  A    between atoms: _96  and  _99
REMARK   42  A    between atoms: _102  and  _104
REMARK   43  A    between atoms: _104  and  _105
REMARK   44  A    between atoms: _104  and  _107
REMARK   45  A    between atoms: _107  and  _108
REMARK   46  A    between atoms: _108  and  _109
REMARK   47  A    between atoms: _109  and  _110
REMARK   48  A    between atoms: _110  and  _111
REMARK   49  A    between atoms: _115  and  _117
REMARK   50  A    between atoms: _117  and  _118
REMARK   51  A    between atoms: _117  and  _120
REMARK   52  A    between atoms: _120  and  _121
REMARK   53  A    between atoms: _124  and  _126
REMARK   54  A    between atoms: _126  and  _127
REMARK   55  A    between atoms: _129  and  _131
REMARK   56  A    between atoms: _131  and  _132
REMARK   57  A    between atoms: _134  and  _136
REMARK   58  A    between atoms: _136  and  _137
REMARK   59  A    between atoms: _136  and  _139
REMARK   60  A    between atoms: _139  and  _140
REMARK   61  A    between atoms: _143  and  _145
REMARK   62  A    between atoms: _145  and  _146
REMARK   63  A    between atoms: _148  and  _150
REMARK   64  A    between atoms: _150  and  _151
REMARK   65  A    between atoms: _153  and  _155
REMARK   66  A    between atoms: _155  and  _156
REMARK   67  A    between atoms: _155  and  _158
REMARK   68  A    between atoms: _158  and  _159
REMARK   69  A    between atoms: _162  and  _164
REMARK   70  A    between atoms: _164  and  _165
REMARK   71  A    between atoms: _164  and  _167
REMARK   72  A    between atoms: _167  and  _168
REMARK   73  A    between atoms: _172  and  _173
REMARK   74  A    between atoms: _178  and  _180
REMARK   75  A    between atoms: _180  and  _181
REMARK   76  A    between atoms: _180  and  _183
REMARK   77  A    between atoms: _183  and  _184
REMARK   78  A    between atoms: _188  and  _189
REMARK   79  A    between atoms: _194  and  _196
REMARK   80  A    between atoms: _196  and  _197
REMARK   81  A    between atoms: _196  and  _199
REMARK   82  A    between atoms: _202  and  _204
REMARK   83  A    between atoms: _204  and  _205
REMARK   84  A    between atoms: _204  and  _207
REMARK   85  A    between atoms: _207  and  _208
REMARK   86  A    between atoms: _213  and  _215
REMARK   87  A    between atoms: _215  and  _216
REMARK   88  A    between atoms: _215  and  _218
REMARK   89  A    between atoms: _218  and  _219
REMARK   90  A    between atoms: _222  and  _224
REMARK   91  A    between atoms: _224  and  _225
REMARK   92  A    between atoms: _224  and  _227
REMARK   93  A    between atoms: _227  and  _228
REMARK   94  A    between atoms: _231  and  _233
REMARK   95  A    between atoms: _233  and  _234
REMARK   96  A    between atoms: _236  and  _238
REMARK   97  A    between atoms: _238  and  _239
REMARK   98  A    between atoms: _238  and  _241
REMARK   99  A    between atoms: _241  and  _242
REMARK  100  A    between atoms: _242  and  _243
REMARK  101  A    between atoms: _243  and  _244
REMARK  102  A    between atoms: _253  and  _255
REMARK  103  A    between atoms: _255  and  _256
REMARK  104  A    between atoms: _255  and  _258
REMARK  105  A    between atoms: _258  and  _259
REMARK  106  A    between atoms: _262  and  _264
REMARK  107  A    between atoms: _264  and  _265
REMARK  108  A    between atoms: _264  and  _267
REMARK  109  A    between atoms: _267  and  _268
REMARK  110  A    between atoms: _268  and  _269
REMARK  111  A    between atoms: _269  and  _270
REMARK  112  A    between atoms: _279  and  _281
REMARK  113  A    between atoms: _281  and  _282
REMARK  114  A    between atoms: _281  and  _284
REMARK  115  A    between atoms: _284  and  _285
REMARK  116  A    between atoms: _288  and  _290
REMARK  117  A    between atoms: _290  and  _291
REMARK  118  A    between atoms: _290  and  _293
REMARK  119  A    between atoms: _293  and  _294
REMARK  120  A    between atoms: _297  and  _299
REMARK  121  A    between atoms: _299  and  _300
REMARK  122  A    between atoms: _299  and  _302
REMARK  123  A    between atoms: _302  and  _303
REMARK  124  A    between atoms: _306  and  _308
REMARK  125  A    between atoms: _308  and  _309
REMARK  126  A    between atoms: _308  and  _311
REMARK  127  A    between atoms: _311  and  _312
REMARK  128  A    between atoms: _315  and  _317
REMARK  129  A    between atoms: _317  and  _318
REMARK  130  A    between atoms: _317  and  _320
REMARK  131  A    between atoms: _320  and  _321
REMARK  132  A    between atoms: _324  and  _326
REMARK  133  A    between atoms: _326  and  _327
REMARK  134  A    between atoms: _329  and  _331
REMARK  135  A    between atoms: _331  and  _332
REMARK  136  A    between atoms: _335  and  _337
REMARK  137  A    between atoms: _337  and  _338
REMARK  138  A    between atoms: _337  and  _340
REMARK  139  A    between atoms: _340  and  _341
REMARK  140  A    between atoms: _344  and  _346
REMARK  141  A    between atoms: _346  and  _347
REMARK  142  A    between atoms: _346  and  _349
REMARK  143  A    between atoms: _349  and  _350
REMARK  144  A    between atoms: _355  and  _357
REMARK  145  A    between atoms: _357  and  _358
REMARK  146  A    between atoms: _357  and  _360
REMARK  147  A    between atoms: _360  and  _361
REMARK  148  A    between atoms: _364  and  _366
REMARK  149  A    between atoms: _366  and  _367
REMARK  150  A    between atoms: _366  and  _369
REMARK  151  A    between atoms: _372  and  _374
REMARK  152  A    between atoms: _374  and  _375
REMARK  153  A    between atoms: _374  and  _377
REMARK  154  A    between atoms: _377  and  _378
REMARK  155  A    between atoms: _381  and  _383
REMARK  156  A    between atoms: _383  and  _384
REMARK  157  A    between atoms: _383  and  _386
REMARK  158  A    between atoms: _386  and  _387
REMARK  159  A    between atoms: _387  and  _388
REMARK  160  A    between atoms: _388  and  _389
REMARK  161  A    between atoms: _389  and  _390
REMARK  162  A    between atoms: _394  and  _396
REMARK  163  A    between atoms: _396  and  _397
REMARK  164  A    between atoms: _396  and  _399
REMARK  165  A    between atoms: _399  and  _400
REMARK  166  A    between atoms: _400  and  _401
REMARK  167  A    between atoms: _403  and  _405
REMARK  168  A    between atoms: _405  and  _406
REMARK  169  A    between atoms: _405  and  _408
REMARK  170  A    between atoms: _408  and  _409
REMARK  171  A    between atoms: _412  and  _414
REMARK  172  A    between atoms: _414  and  _415
REMARK  173  A    between atoms: _417  and  _419
REMARK  174  A    between atoms: _419  and  _420
REMARK  175  A    between atoms: _422  and  _424
REMARK  176  A    between atoms: _424  and  _425
REMARK  177  A    between atoms: _424  and  _427
REMARK  178  A    between atoms: _427  and  _428
REMARK  179  A    between atoms: _431  and  _433
REMARK  180  A    between atoms: _433  and  _434
REMARK  181  A    between atoms: _436  and  _438
REMARK  182  A    between atoms: _438  and  _439
REMARK  183  A    between atoms: _441  and  _443
REMARK  184  A    between atoms: _443  and  _444
REMARK  185  A    between atoms: _443  and  _446
REMARK  186  A    between atoms: _446  and  _447
REMARK  187  A    between atoms: _453  and  _455
REMARK  188  A    between atoms: _455  and  _456
REMARK  189  A    between atoms: _455  and  _458
REMARK  190  A    between atoms: _458  and  _459
REMARK  191  A    between atoms: _462  and  _464
REMARK  192  A    between atoms: _464  and  _465
REMARK  193  A    between atoms: _464  and  _467
REMARK  194  A    between atoms: _470  and  _472
REMARK  195  A    between atoms: _472  and  _473
REMARK  196  A    between atoms: _472  and  _475
REMARK  197  A    between atoms: _475  and  _476
REMARK  198  A    between atoms: _479  and  _481
REMARK  199  A    between atoms: _481  and  _482
REMARK  200  A    between atoms: _481  and  _484
REMARK  201  A    between atoms: _484  and  _485
REMARK  202  A    between atoms: _489  and  _490
REMARK  203  A    between atoms: _495  and  _497
REMARK  204  A    between atoms: _497  and  _498
REMARK  205  A    between atoms: _497  and  _500
REMARK  206  A    between atoms: _503  and  _505
REMARK  207  A    between atoms: _505  and  _506
REMARK  208  A    between atoms: _505  and  _508
REMARK  209  A    between atoms: _508  and  _509
REMARK  210  A    between atoms: _514  and  _516
REMARK  211  A    between atoms: _516  and  _517
REMARK  212  A    between atoms: _516  and  _519
REMARK  213  A    between atoms: _519  and  _520
REMARK  214  A    between atoms: _523  and  _525
REMARK  215  A    between atoms: _525  and  _526
REMARK  216  A    between atoms: _525  and  _528
REMARK  217  A    between atoms: _528  and  _529
REMARK  218  A    between atoms: _532  and  _534
REMARK  219  A    between atoms: _534  and  _535
REMARK  220  A    between atoms: _537  and  _539
REMARK  221  A    between atoms: _539  and  _540
REMARK  222  A    between atoms: _539  and  _542
REMARK  223  A    between atoms: _542  and  _543
REMARK  224  A    between atoms: _543  and  _544
REMARK  225  A    between atoms: _544  and  _545
REMARK                            x       y       z     vdW  Elec       q    Type
REMARK                         _______ _______ _______ _____ _____    ______ ____
ROOT
ATOM      1  CA  ILE A   6     -16.174  15.020  21.857  0.00  0.00    +0.149 C 
ENDROOT
BRANCH   1   2
ATOM      2  C   ILE A   6     -16.379  16.004  20.717  0.00  0.00    +0.241 C 
ATOM      3  N   ILE A   7     -16.910  17.190  21.023  0.00  0.00    -0.297 N 
ATOM      4  H   ILE A   7     -17.304  17.335  21.975  0.00  0.00    +0.150 HD
ATOM      5  O   ILE A   6     -16.048  15.688  19.578  0.00  0.00    -0.273 OA
BRANCH   3   6
ATOM      6  CA  ILE A   7     -16.955  18.288  20.064  0.00  0.00    +0.149 C 
BRANCH   6   7
ATOM      7  C   ILE A   7     -15.767  19.207  20.322  0.00  0.00    +0.241 C 
ATOM      8  O   ILE A   7     -15.708  19.869  21.362  0.00  0.00    -0.273 OA
ATOM      9  N   GLY A   8     -14.833  19.244  19.373  0.00  0.00    -0.295 N 
ATOM     10  H   GLY A   8     -14.995  18.738  18.479  0.00  0.00    +0.150 HD
BRANCH   9  11
ATOM     11  CA  GLY A   8     -13.583  19.983  19.563  0.00  0.00    +0.176 C 
BRANCH  11  12
ATOM     12  C   GLY A   8     -13.644  21.364  18.943  0.00  0.00    +0.243 C 
ATOM     13  N   ARG A   9     -12.534  22.105  18.985  0.00  0.00    -0.297 N 
ATOM     14  H   ARG A   9     -11.652  21.686  19.343  0.00  0.00    +0.150 HD
ATOM     15  O   GLY A   8     -14.676  21.758  18.427  0.00  0.00    -0.273 OA
BRANCH  13  16
ATOM     16  CA  ARG A   9     -12.538  23.501  18.534  0.00  0.00    +0.149 C 
BRANCH  16  17
ATOM     17  C   ARG A   9     -12.895  23.679  17.059  0.00  0.00    +0.241 C 
ATOM     18  O   ARG A   9     -13.464  24.709  16.675  0.00  0.00    -0.273 OA
ATOM     19  N   ASP A  10     -12.585  22.667  16.249  0.00  0.00    -0.298 N 
ATOM     20  H   ASP A  10     -12.152  21.813  16.655  0.00  0.00    +0.150 HD
BRANCH  19  21
ATOM     21  CA  ASP A  10     -12.834  22.718  14.804  0.00  0.00    +0.148 C 
BRANCH  21  22
ATOM     22  C   ASP A  10     -14.320  23.015  14.525  0.00  0.00    +0.227 C 
ATOM     23  O   ASP A  10     -14.656  23.788  13.612  0.00  0.00    -0.286 OA
ENDBRANCH  21  22
BRANCH  21  24
ATOM     24  CB  ASP A  10     -12.365  21.410  14.108  0.00  0.00    +0.142 C 
BRANCH  24  25
ATOM     25  CG  ASP A  10     -13.020  20.125  14.682  0.00  0.00    +0.367 C 
ATOM     26  OD2 ASP A  10     -13.713  20.150  15.714  0.00  0.00    -0.246 OA
ATOM     27  OD1 ASP A  10     -12.848  19.047  14.067  0.00  0.00    -0.246 OA
ENDBRANCH  24  25
ENDBRANCH  21  24
ENDBRANCH  19  21
ENDBRANCH  16  17
BRANCH  16  28
ATOM     28  CB  ARG A   9     -11.211  24.173  18.834  0.00  0.00    +0.033 C 
BRANCH  28  29
ATOM     29  CG  ARG A   9     -10.873  24.219  20.324  0.00  0.00    +0.045 C 
BRANCH  29  30
ATOM     30  CD  ARG A   9      -9.584  25.022  20.571  0.00  0.00    +0.174 C 
BRANCH  30  31
ATOM     31  NE  ARG A   9      -8.400  24.343  20.050  0.00  0.00    -0.265 N 
ATOM     32  HE  ARG A   9      -7.995  23.578  20.627  0.00  0.00    +0.259 HD
ATOM     33  CZ  ARG A   9      -7.797  24.624  18.895  0.00  0.00    +0.342 C 
ATOM     34  NH2 ARG A   9      -6.728  23.928  18.533  0.00  0.00    -0.292 N 
ATOM     35 HH21 ARG A   9      -6.368  23.171  19.148  0.00  0.00    +0.255 HD
ATOM     36 HH22 ARG A   9      -6.250  24.139  17.634  0.00  0.00    +0.255 HD
ATOM     37  NH1 ARG A   9      -8.237  25.606  18.109  0.00  0.00    -0.292 N 
ATOM     38 HH11 ARG A   9      -9.064  26.168  18.393  0.00  0.00    +0.255 HD
ATOM     39 HH12 ARG A   9      -7.753  25.810  17.211  0.00  0.00    +0.255 HD
ENDBRANCH  30  31
ENDBRANCH  29  30
ENDBRANCH  28  29
ENDBRANCH  16  28
ENDBRANCH  13  16
ENDBRANCH  11  12
ENDBRANCH   9  11
ENDBRANCH   6   7
BRANCH   6  40
ATOM     40  CB  ILE A   7     -18.269  19.128  20.162  0.00  0.00    +0.027 C 
ATOM     41  CG2 ILE A   7     -18.265  20.283  19.105  0.00  0.00    +0.002 C 
BRANCH  40  42
ATOM     42  CG1 ILE A   7     -19.523  18.239  20.059  0.00  0.00    +0.002 C 
ATOM     43  CD1 ILE A   7     -19.518  17.242  18.901  0.00  0.00    +0.000 C 
ENDBRANCH  40  42
ENDBRANCH   6  40
ENDBRANCH   3   6
ENDBRANCH   1   2
BRANCH   1  46
ATOM     44  C   ASN A   5     -17.893  13.335  22.388  0.00  0.00    +0.241 C 
ATOM     45  O   ASN A   5     -18.386  13.981  23.321  0.00  0.00    -0.273 OA
ATOM     46  N   ILE A   6     -16.889  13.767  21.624  0.00  0.00    -0.297 N 
ATOM     47  H   ILE A   6     -16.598  13.179  20.817  0.00  0.00    +0.150 HD
BRANCH  44  48
ATOM     48  CA  ASN A   5     -18.413  11.942  22.057  0.00  0.00    +0.158 C 
BRANCH  48  50
ATOM     49  C   VAL A   4     -17.252  10.754  23.813  0.00  0.00    +0.241 C 
ATOM     50  N   ASN A   5     -18.403  11.125  23.264  0.00  0.00    -0.297 N 
ATOM     51  H   ASN A   5     -19.302  10.831  23.697  0.00  0.00    +0.150 HD
ATOM     52  O   VAL A   4     -16.174  10.924  23.260  0.00  0.00    -0.273 OA
BRANCH  49  53
ATOM     53  CA  VAL A   4     -17.316  10.105  25.178  0.00  0.00    +0.149 C 
BRANCH  53  56
ATOM     54  C   PRO A   3     -16.679   7.817  25.789  0.00  0.00    +0.241 C 
ATOM     55  O   PRO A   3     -17.747   7.597  26.361  0.00  0.00    -0.273 OA
ATOM     56  N   VAL A   4     -16.392   8.974  25.195  0.00  0.00    -0.297 N 
ATOM     57  H   VAL A   4     -15.471   9.076  24.723  0.00  0.00    +0.150 HD
BRANCH  54  60
ATOM     58  C   THR A   2     -14.694   6.911  23.504  0.00  0.00    +0.246 C 
ATOM     59  N   PRO A   3     -14.499   7.064  24.828  0.00  0.00    -0.272 N 
ATOM     60  CA  PRO A   3     -15.595   6.737  25.744  0.00  0.00    +0.152 C 
ATOM     61  CB  PRO A   3     -14.891   6.639  27.095  0.00  0.00    +0.031 C 
ATOM     62  CG  PRO A   3     -13.747   7.575  26.985  0.00  0.00    +0.024 C 
ATOM     63  CD  PRO A   3     -13.292   7.507  25.552  0.00  0.00    +0.094 C 
ATOM     64  O   THR A   2     -15.755   6.487  23.038  0.00  0.00    -0.273 OA
BRANCH  58  65
ATOM     65  CA  THR A   2     -13.527   7.262  22.568  0.00  0.00    +0.176 C 
BRANCH  65  68
ATOM     66  C   PRO A   1     -12.667   5.170  21.622  0.00  0.00    +0.239 C 
ATOM     67  O   PRO A   1     -11.867   5.001  22.541  0.00  0.00    -0.274 OA
ATOM     68  N   THR A   2     -13.439   6.249  21.515  0.00  0.00    -0.295 N 
ATOM     69  H   THR A   2     -14.001   6.377  20.650  0.00  0.00    +0.150 HD
BRANCH  66  71
ATOM     70  N   PRO A   1     -12.514   4.614  19.180  0.00  0.00    -0.210 NA
ATOM     71  CA  PRO A   1     -12.826   4.120  20.522  0.00  0.00    +0.149 C 
ATOM     72  CB  PRO A   1     -11.842   2.956  20.699  0.00  0.00    +0.028 C 
ATOM     73  CG  PRO A   1     -10.668   3.345  19.885  0.00  0.00    +0.021 C 
ATOM     74  CD  PRO A   1     -11.219   4.096  18.697  0.00  0.00    +0.089 C 
ENDBRANCH  66  71
ENDBRANCH  65  68
BRANCH  65  75
ATOM     75  CB  THR A   2     -13.686   8.701  21.984  0.00  0.00    +0.137 C 
ATOM     76  CG2 THR A   2     -14.887   8.796  21.066  0.00  0.00    +0.034 C 
BRANCH  75  77
ATOM     77  OG1 THR A   2     -13.825   9.652  23.050  0.00  0.00    -0.382 OA
ATOM     78  HG1 THR A   2     -14.625   9.428  23.588  0.00  0.00    +0.210 HD
ENDBRANCH  75  77
ENDBRANCH  65  75
ENDBRANCH  58  65
ENDBRANCH  54  60
ENDBRANCH  53  56
BRANCH  53  79
ATOM     79  CB  VAL A   4     -16.938  11.157  26.267  0.00  0.00    +0.027 C 
ATOM     80  CG2 VAL A   4     -16.959  10.518  27.666  0.00  0.00    +0.002 C 
ATOM     81  CG1 VAL A   4     -17.891  12.353  26.219  0.00  0.00    +0.002 C 
ENDBRANCH  53  79
ENDBRANCH  49  53
ENDBRANCH  48  50
BRANCH  48  82
ATOM     82  CB  ASN A   5     -19.817  12.023  21.480  0.00  0.00    +0.114 C 
BRANCH  82  83
ATOM     83  CG  ASN A   5     -20.328  10.667  21.015  0.00  0.00    +0.222 C 
ATOM     84  ND2 ASN A   5     -21.568  10.353  21.365  0.00  0.00    -0.329 N 
ATOM     85 HD21 ASN A   5     -22.147  11.035  21.895  0.00  0.00    +0.145 HD
ATOM     86 HD22 ASN A   5     -21.961   9.425  21.109  0.00  0.00    +0.145 HD
ATOM     87  OD1 ASN A   5     -19.601   9.896  20.387  0.00  0.00    -0.275 OA
ENDBRANCH  82  83
ENDBRANCH  48  82
ENDBRANCH  44  48
ENDBRANCH   1  46
BRANCH   1  88
ATOM     88  CB  ILE A   6     -14.636  14.747  21.950  0.00  0.00    +0.027 C 
ATOM     89  CG2 ILE A   6     -13.823  16.070  21.984  0.00  0.00    +0.002 C 
BRANCH  88  90
ATOM     90  CG1 ILE A   6     -14.294  13.871  23.157  0.00  0.00    +0.002 C 
ATOM     91  CD1 ILE A   6     -14.804  14.382  24.473  0.00  0.00    +0.000 C 
ENDBRANCH  88  90
ENDBRANCH   1  88
TORSDOF 33
REMARK  Name = ../refined-set-2016/2pym/2pym_pocket.pdb
REMARK  225 active torsions:
REMARK  status: ('A' for Active; 'I' for Inactive)
REMARK    1  A    between atoms: _1  and  _3
REMARK    2  A    between atoms: _3  and  _4
REMARK    3  A    between atoms: _3  and  _6
REMARK    4  A    between atoms: _6  and  _7
REMARK    5  A    between atoms: _7  and  _8
REMARK    6  A    between atoms: _8  and  _9
REMARK    7  A    between atoms: _18  and  _20
REMARK    8  A    between atoms: _20  and  _21
REMARK    9  A    between atoms: _20  and  _23
REMARK   10  A    between atoms: _23  and  _24
REMARK   11  A    between atoms: _27  and  _29
REMARK   12  A    between atoms: _29  and  _30
REMARK   13  A    between atoms: _29  and  _32
REMARK   14  A    between atoms: _32  and  _33
REMARK   15  A    between atoms: _36  and  _38
REMARK   16  A    between atoms: _38  and  _39
REMARK   17  A    between atoms: _38  and  _41
REMARK   18  A    between atoms: _41  and  _42
REMARK   19  A    between atoms: _45  and  _47
REMARK   20  A    between atoms: _47  and  _48
REMARK   21  A    between atoms: _47  and  _50
REMARK   22  A    between atoms: _50  and  _51
REMARK   23  A    between atoms: _54  and  _56
REMARK   24  A    between atoms: _56  and  _57
REMARK   25  A    between atoms: _59  and  _61
REMARK   26  A    between atoms: _61  and  _62
REMARK   27  A    between atoms: _65  and  _67
REMARK   28  A    between atoms: _67  and  _68
REMARK   29  A    between atoms: _67  and  _70
REMARK   30  A    between atoms: _70  and  _71
REMARK   31  A    between atoms: _74  and  _76
REMARK   32  A    between atoms: _76  and  _77
REMARK   33  A    between atoms: _76  and  _79
REMARK   34  A    between atoms: _79  and  _80
REMARK   35  A    between atoms: _85  and  _87
REMARK   36  A    between atoms: _87  and  _88
REMARK   37  A    between atoms: _87  and  _90
REMARK   38  A    between atoms: _90  and  _91
REMARK   39  A    between atoms: _94  and  _96
REMARK   40  A    between atoms: _96  and  _97
REMARK   41  A    between atoms: _96  and  _99
REMARK   42  A    between atoms: _102  and  _104
REMARK   43  A    between atoms: _104  and  _105
REMARK   44  A    between atoms: _104  and  _107
REMARK   45  A    between atoms: _107  and  _108
REMARK   46  A    between atoms: _108  and  _109
REMARK   47  A    between atoms: _109  and  _110
REMARK   48  A    between atoms: _110  and  _111
REMARK   49  A    between atoms: _115  and  _117
REMARK   50  A    between atoms: _117  and  _118
REMARK   51  A    between atoms: _117  and  _120
REMARK   52  A    between atoms: _120  and  _121
REMARK   53  A    between atoms: _124  and  _126
REMARK   54  A    between atoms: _126  and  _127
REMARK   55  A    between atoms: _129  and  _131
REMARK   56  A    between atoms: _131  and  _132
REMARK   57  A    between atoms: _134  and  _136
REMARK   58  A    between atoms: _136  and  _137
REMARK   59  A    between atoms: _136  and  _139
REMARK   60  A    between atoms: _139  and  _140
REMARK   61  A    between atoms: _143  and  _145
REMARK   62  A    between atoms: _145  and  _146
REMARK   63  A    between atoms: _148  and  _150
REMARK   64  A    between atoms: _150  and  _151
REMARK   65  A    between atoms: _153  and  _155
REMARK   66  A    between atoms: _155  and  _156
REMARK   67  A    between atoms: _155  and  _158
REMARK   68  A    between atoms: _158  and  _159
REMARK   69  A    between atoms: _162  and  _164
REMARK   70  A    between atoms: _164  and  _165
REMARK   71  A    between atoms: _164  and  _167
REMARK   72  A    between atoms: _167  and  _168
REMARK   73  A    between atoms: _172  and  _173
REMARK   74  A    between atoms: _178  and  _180
REMARK   75  A    between atoms: _180  and  _181
REMARK   76  A    between atoms: _180  and  _183
REMARK   77  A    between atoms: _183  and  _184
REMARK   78  A    between atoms: _188  and  _189
REMARK   79  A    between atoms: _194  and  _196
REMARK   80  A    between atoms: _196  and  _197
REMARK   81  A    between atoms: _196  and  _199
REMARK   82  A    between atoms: _202  and  _204
REMARK   83  A    between atoms: _204  and  _205
REMARK   84  A    between atoms: _204  and  _207
REMARK   85  A    between atoms: _207  and  _208
REMARK   86  A    between atoms: _213  and  _215
REMARK   87  A    between atoms: _215  and  _216
REMARK   88  A    between atoms: _215  and  _218
REMARK   89  A    between atoms: _218  and  _219
REMARK   90  A    between atoms: _222  and  _224
REMARK   91  A    between atoms: _224  and  _225
REMARK   92  A    between atoms: _224  and  _227
REMARK   93  A    between atoms: _227  and  _228
REMARK   94  A    between atoms: _231  and  _233
REMARK   95  A    between atoms: _233  and  _234
REMARK   96  A    between atoms: _236  and  _238
REMARK   97  A    between atoms: _238  and  _239
REMARK   98  A    between atoms: _238  and  _241
REMARK   99  A    between atoms: _241  and  _242
REMARK  100  A    between atoms: _242  and  _243
REMARK  101  A    between atoms: _243  and  _244
REMARK  102  A    between atoms: _253  and  _255
REMARK  103  A    between atoms: _255  and  _256
REMARK  104  A    between atoms: _255  and  _258
REMARK  105  A    between atoms: _258  and  _259
REMARK  106  A    between atoms: _262  and  _264
REMARK  107  A    between atoms: _264  and  _265
REMARK  108  A    between atoms: _264  and  _267
REMARK  109  A    between atoms: _267  and  _268
REMARK  110  A    between atoms: _268  and  _269
REMARK  111  A    between atoms: _269  and  _270
REMARK  112  A    between atoms: _279  and  _281
REMARK  113  A    between atoms: _281  and  _282
REMARK  114  A    between atoms: _281  and  _284
REMARK  115  A    between atoms: _284  and  _285
REMARK  116  A    between atoms: _288  and  _290
REMARK  117  A    between atoms: _290  and  _291
REMARK  118  A    between atoms: _290  and  _293
REMARK  119  A    between atoms: _293  and  _294
REMARK  120  A    between atoms: _297  and  _299
REMARK  121  A    between atoms: _299  and  _300
REMARK  122  A    between atoms: _299  and  _302
REMARK  123  A    between atoms: _302  and  _303
REMARK  124  A    between atoms: _306  and  _308
REMARK  125  A    between atoms: _308  and  _309
REMARK  126  A    between atoms: _308  and  _311
REMARK  127  A    between atoms: _311  and  _312
REMARK  128  A    between atoms: _315  and  _317
REMARK  129  A    between atoms: _317  and  _318
REMARK  130  A    between atoms: _317  and  _320
REMARK  131  A    between atoms: _320  and  _321
REMARK  132  A    between atoms: _324  and  _326
REMARK  133  A    between atoms: _326  and  _327
REMARK  134  A    between atoms: _329  and  _331
REMARK  135  A    between atoms: _331  and  _332
REMARK  136  A    between atoms: _335  and  _337
REMARK  137  A    between atoms: _337  and  _338
REMARK  138  A    between atoms: _337  and  _340
REMARK  139  A    between atoms: _340  and  _341
REMARK  140  A    between atoms: _344  and  _346
REMARK  141  A    between atoms: _346  and  _347
REMARK  142  A    between atoms: _346  and  _349
REMARK  143  A    between atoms: _349  and  _350
REMARK  144  A    between atoms: _355  and  _357
REMARK  145  A    between atoms: _357  and  _358
REMARK  146  A    between atoms: _357  and  _360
REMARK  147  A    between atoms: _360  and  _361
REMARK  148  A    between atoms: _364  and  _366
REMARK  149  A    between atoms: _366  and  _367
REMARK  150  A    between atoms: _366  and  _369
REMARK  151  A    between atoms: _372  and  _374
REMARK  152  A    between atoms: _374  and  _375
REMARK  153  A    between atoms: _374  and  _377
REMARK  154  A    between atoms: _377  and  _378
REMARK  155  A    between atoms: _381  and  _383
REMARK  156  A    between atoms: _383  and  _384
REMARK  157  A    between atoms: _383  and  _386
REMARK  158  A    between atoms: _386  and  _387
REMARK  159  A    between atoms: _387  and  _388
REMARK  160  A    between atoms: _388  and  _389
REMARK  161  A    between atoms: _389  and  _390
REMARK  162  A    between atoms: _394  and  _396
REMARK  163  A    between atoms: _396  and  _397
REMARK  164  A    between atoms: _396  and  _399
REMARK  165  A    between atoms: _399  and  _400
REMARK  166  A    between atoms: _400  and  _401
REMARK  167  A    between atoms: _403  and  _405
REMARK  168  A    between atoms: _405  and  _406
REMARK  169  A    between atoms: _405  and  _408
REMARK  170  A    between atoms: _408  and  _409
REMARK  171  A    between atoms: _412  and  _414
REMARK  172  A    between atoms: _414  and  _415
REMARK  173  A    between atoms: _417  and  _419
REMARK  174  A    between atoms: _419  and  _420
REMARK  175  A    between atoms: _422  and  _424
REMARK  176  A    between atoms: _424  and  _425
REMARK  177  A    between atoms: _424  and  _427
REMARK  178  A    between atoms: _427  and  _428
REMARK  179  A    between atoms: _431  and  _433
REMARK  180  A    between atoms: _433  and  _434
REMARK  181  A    between atoms: _436  and  _438
REMARK  182  A    between atoms: _438  and  _439
REMARK  183  A    between atoms: _441  and  _443
REMARK  184  A    between atoms: _443  and  _444
REMARK  185  A    between atoms: _443  and  _446
REMARK  186  A    between atoms: _446  and  _447
REMARK  187  A    between atoms: _453  and  _455
REMARK  188  A    between atoms: _455  and  _456
REMARK  189  A    between atoms: _455  and  _458
REMARK  190  A    between atoms: _458  and  _459
REMARK  191  A    between atoms: _462  and  _464
REMARK  192  A    between atoms: _464  and  _465
REMARK  193  A    between atoms: _464  and  _467
REMARK  194  A    between atoms: _470  and  _472
REMARK  195  A    between atoms: _472  and  _473
REMARK  196  A    between atoms: _472  and  _475
REMARK  197  A    between atoms: _475  and  _476
REMARK  198  A    between atoms: _479  and  _481
REMARK  199  A    between atoms: _481  and  _482
REMARK  200  A    between atoms: _481  and  _484
REMARK  201  A    between atoms: _484  and  _485
REMARK  202  A    between atoms: _489  and  _490
REMARK  203  A    between atoms: _495  and  _497
REMARK  204  A    between atoms: _497  and  _498
REMARK  205  A    between atoms: _497  and  _500
REMARK  206  A    between atoms: _503  and  _505
REMARK  207  A    between atoms: _505  and  _506
REMARK  208  A    between atoms: _505  and  _508
REMARK  209  A    between atoms: _508  and  _509
REMARK  210  A    between atoms: _514  and  _516
REMARK  211  A    between atoms: _516  and  _517
REMARK  212  A    between atoms: _516  and  _519
REMARK  213  A    between atoms: _519  and  _520
REMARK  214  A    between atoms: _523  and  _525
REMARK  215  A    between atoms: _525  and  _526
REMARK  216  A    between atoms: _525  and  _528
REMARK  217  A    between atoms: _528  and  _529
REMARK  218  A    between atoms: _532  and  _534
REMARK  219  A    between atoms: _534  and  _535
REMARK  220  A    between atoms: _537  and  _539
REMARK  221  A    between atoms: _539  and  _540
REMARK  222  A    between atoms: _539  and  _542
REMARK  223  A    between atoms: _542  and  _543
REMARK  224  A    between atoms: _543  and  _544
REMARK  225  A    between atoms: _544  and  _545
REMARK                            x       y       z     vdW  Elec       q    Type
REMARK                         _______ _______ _______ _____ _____    ______ ____
ROOT
ATOM      1  NE  ARG A   1      -3.376  22.383  21.014  0.00  0.00    -0.265 N 
ATOM      2  CZ  ARG A   1      -2.767  21.262  21.389  0.00  0.00    +0.342 C 
ATOM      3  NH2 ARG A   1      -2.193  21.165  22.584  0.00  0.00    -0.292 N 
ATOM      4 HH21 ARG A   1      -2.217  21.972  23.239  0.00  0.00    +0.255 HD
ATOM      5 HH22 ARG A   1      -1.720  20.282  22.864  0.00  0.00    +0.255 HD
ATOM      6  NH1 ARG A   1      -2.736  20.227  20.560  0.00  0.00    -0.292 N 
ATOM      7 HH11 ARG A   1      -2.262  19.346  20.845  0.00  0.00    +0.255 HD
ATOM      8 HH12 ARG A   1      -3.186  20.296  19.625  0.00  0.00    +0.255 HD
ATOM      9  HE  ARG A   1      -3.806  22.401  20.067  0.00  0.00    +0.259 HD
ENDROOT
BRANCH   1  10
ATOM     10  CD  ARG A   1      -3.489  23.593  21.828  0.00  0.00    +0.174 C 
BRANCH  10  11
ATOM     11  CG  ARG A   1      -4.624  24.468  21.303  0.00  0.00    +0.045 C 
BRANCH  11  12
ATOM     12  CB  ARG A   1      -4.605  25.839  21.937  0.00  0.00    +0.029 C 
BRANCH  12  13
ATOM     13  CA  ARG A   1      -5.845  26.672  21.644  0.00  0.00    +0.133 C 
BRANCH  13  14
ATOM     14  N   ARG A   1      -5.739  27.248  20.295  0.00  0.00    -0.239 NA
ATOM     15  H   ARG A   1      -4.950  26.963  19.680  0.00  0.00    +0.142 HD
ENDBRANCH  13  14
BRANCH  13  16
ATOM     16  C   ARG A   1      -6.004  27.776  22.698  0.00  0.00    +0.224 C 
ATOM     17  O   ARG A   1      -5.245  28.767  22.667  0.00  0.00    -0.287 OA
ENDBRANCH  13  16
ENDBRANCH  12  13
ENDBRANCH  11  12
ENDBRANCH  10  11
ENDBRANCH   1  10
TORSDOF 6
REMARK  Name = ../refined-set-2016/2pym/2pym_pocket.pdb
REMARK  225 active torsions:
REMARK  status: ('A' for Active; 'I' for Inactive)
REMARK    1  A    between atoms: _1  and  _3
REMARK    2  A    between atoms: _3  and  _4
REMARK    3  A    between atoms: _3  and  _6
REMARK    4  A    between atoms: _6  and  _7
REMARK    5  A    between atoms: _7  and  _8
REMARK    6  A    between atoms: _8  and  _9
REMARK    7  A    between atoms: _18  and  _20
REMARK    8  A    between atoms: _20  and  _21
REMARK    9  A    between atoms: _20  and  _23
REMARK   10  A    between atoms: _23  and  _24
REMARK   11  A    between atoms: _27  and  _29
REMARK   12  A    between atoms: _29  and  _30
REMARK   13  A    between atoms: _29  and  _32
REMARK   14  A    between atoms: _32  and  _33
REMARK   15  A    between atoms: _36  and  _38
REMARK   16  A    between atoms: _38  and  _39
REMARK   17  A    between atoms: _38  and  _41
REMARK   18  A    between atoms: _41  and  _42
REMARK   19  A    between atoms: _45  and  _47
REMARK   20  A    between atoms: _47  and  _48
REMARK   21  A    between atoms: _47  and  _50
REMARK   22  A    between atoms: _50  and  _51
REMARK   23  A    between atoms: _54  and  _56
REMARK   24  A    between atoms: _56  and  _57
REMARK   25  A    between atoms: _59  and  _61
REMARK   26  A    between atoms: _61  and  _62
REMARK   27  A    between atoms: _65  and  _67
REMARK   28  A    between atoms: _67  and  _68
REMARK   29  A    between atoms: _67  and  _70
REMARK   30  A    between atoms: _70  and  _71
REMARK   31  A    between atoms: _74  and  _76
REMARK   32  A    between atoms: _76  and  _77
REMARK   33  A    between atoms: _76  and  _79
REMARK   34  A    between atoms: _79  and  _80
REMARK   35  A    between atoms: _85  and  _87
REMARK   36  A    between atoms: _87  and  _88
REMARK   37  A    between atoms: _87  and  _90
REMARK   38  A    between atoms: _90  and  _91
REMARK   39  A    between atoms: _94  and  _96
REMARK   40  A    between atoms: _96  and  _97
REMARK   41  A    between atoms: _96  and  _99
REMARK   42  A    between atoms: _102  and  _104
REMARK   43  A    between atoms: _104  and  _105
REMARK   44  A    between atoms: _104  and  _107
REMARK   45  A    between atoms: _107  and  _108
REMARK   46  A    between atoms: _108  and  _109
REMARK   47  A    between atoms: _109  and  _110
REMARK   48  A    between atoms: _110  and  _111
REMARK   49  A    between atoms: _115  and  _117
REMARK   50  A    between atoms: _117  and  _118
REMARK   51  A    between atoms: _117  and  _120
REMARK   52  A    between atoms: _120  and  _121
REMARK   53  A    between atoms: _124  and  _126
REMARK   54  A    between atoms: _126  and  _127
REMARK   55  A    between atoms: _129  and  _131
REMARK   56  A    between atoms: _131  and  _132
REMARK   57  A    between atoms: _134  and  _136
REMARK   58  A    between atoms: _136  and  _137
REMARK   59  A    between atoms: _136  and  _139
REMARK   60  A    between atoms: _139  and  _140
REMARK   61  A    between atoms: _143  and  _145
REMARK   62  A    between atoms: _145  and  _146
REMARK   63  A    between atoms: _148  and  _150
REMARK   64  A    between atoms: _150  and  _151
REMARK   65  A    between atoms: _153  and  _155
REMARK   66  A    between atoms: _155  and  _156
REMARK   67  A    between atoms: _155  and  _158
REMARK   68  A    between atoms: _158  and  _159
REMARK   69  A    between atoms: _162  and  _164
REMARK   70  A    between atoms: _164  and  _165
REMARK   71  A    between atoms: _164  and  _167
REMARK   72  A    between atoms: _167  and  _168
REMARK   73  A    between atoms: _172  and  _173
REMARK   74  A    between atoms: _178  and  _180
REMARK   75  A    between atoms: _180  and  _181
REMARK   76  A    between atoms: _180  and  _183
REMARK   77  A    between atoms: _183  and  _184
REMARK   78  A    between atoms: _188  and  _189
REMARK   79  A    between atoms: _194  and  _196
REMARK   80  A    between atoms: _196  and  _197
REMARK   81  A    between atoms: _196  and  _199
REMARK   82  A    between atoms: _202  and  _204
REMARK   83  A    between atoms: _204  and  _205
REMARK   84  A    between atoms: _204  and  _207
REMARK   85  A    between atoms: _207  and  _208
REMARK   86  A    between atoms: _213  and  _215
REMARK   87  A    between atoms: _215  and  _216
REMARK   88  A    between atoms: _215  and  _218
REMARK   89  A    between atoms: _218  and  _219
REMARK   90  A    between atoms: _222  and  _224
REMARK   91  A    between atoms: _224  and  _225
REMARK   92  A    between atoms: _224  and  _227
REMARK   93  A    between atoms: _227  and  _228
REMARK   94  A    between atoms: _231  and  _233
REMARK   95  A    between atoms: _233  and  _234
REMARK   96  A    between atoms: _236  and  _238
REMARK   97  A    between atoms: _238  and  _239
REMARK   98  A    between atoms: _238  and  _241
REMARK   99  A    between atoms: _241  and  _242
REMARK  100  A    between atoms: _242  and  _243
REMARK  101  A    between atoms: _243  and  _244
REMARK  102  A    between atoms: _253  and  _255
REMARK  103  A    between atoms: _255  and  _256
REMARK  104  A    between atoms: _255  and  _258
REMARK  105  A    between atoms: _258  and  _259
REMARK  106  A    between atoms: _262  and  _264
REMARK  107  A    between atoms: _264  and  _265
REMARK  108  A    between atoms: _264  and  _267
REMARK  109  A    between atoms: _267  and  _268
REMARK  110  A    between atoms: _268  and  _269
REMARK  111  A    between atoms: _269  and  _270
REMARK  112  A    between atoms: _279  and  _281
REMARK  113  A    between atoms: _281  and  _282
REMARK  114  A    between atoms: _281  and  _284
REMARK  115  A    between atoms: _284  and  _285
REMARK  116  A    between atoms: _288  and  _290
REMARK  117  A    between atoms: _290  and  _291
REMARK  118  A    between atoms: _290  and  _293
REMARK  119  A    between atoms: _293  and  _294
REMARK  120  A    between atoms: _297  and  _299
REMARK  121  A    between atoms: _299  and  _300
REMARK  122  A    between atoms: _299  and  _302
REMARK  123  A    between atoms: _302  and  _303
REMARK  124  A    between atoms: _306  and  _308
REMARK  125  A    between atoms: _308  and  _309
REMARK  126  A    between atoms: _308  and  _311
REMARK  127  A    between atoms: _311  and  _312
REMARK  128  A    between atoms: _315  and  _317
REMARK  129  A    between atoms: _317  and  _318
REMARK  130  A    between atoms: _317  and  _320
REMARK  131  A    between atoms: _320  and  _321
REMARK  132  A    between atoms: _324  and  _326
REMARK  133  A    between atoms: _326  and  _327
REMARK  134  A    between atoms: _329  and  _331
REMARK  135  A    between atoms: _331  and  _332
REMARK  136  A    between atoms: _335  and  _337
REMARK  137  A    between atoms: _337  and  _338
REMARK  138  A    between atoms: _337  and  _340
REMARK  139  A    between atoms: _340  and  _341
REMARK  140  A    between atoms: _344  and  _346
REMARK  141  A    between atoms: _346  and  _347
REMARK  142  A    between atoms: _346  and  _349
REMARK  143  A    between atoms: _349  and  _350
REMARK  144  A    between atoms: _355  and  _357
REMARK  145  A    between atoms: _357  and  _358
REMARK  146  A    between atoms: _357  and  _360
REMARK  147  A    between atoms: _360  and  _361
REMARK  148  A    between atoms: _364  and  _366
REMARK  149  A    between atoms: _366  and  _367
REMARK  150  A    between atoms: _366  and  _369
REMARK  151  A    between atoms: _372  and  _374
REMARK  152  A    between atoms: _374  and  _375
REMARK  153  A    between atoms: _374  and  _377
REMARK  154  A    between atoms: _377  and  _378
REMARK  155  A    between atoms: _381  and  _383
REMARK  156  A    between atoms: _383  and  _384
REMARK  157  A    between atoms: _383  and  _386
REMARK  158  A    between atoms: _386  and  _387
REMARK  159  A    between atoms: _387  and  _388
REMARK  160  A    between atoms: _388  and  _389
REMARK  161  A    between atoms: _389  and  _390
REMARK  162  A    between atoms: _394  and  _396
REMARK  163  A    between atoms: _396  and  _397
REMARK  164  A    between atoms: _396  and  _399
REMARK  165  A    between atoms: _399  and  _400
REMARK  166  A    between atoms: _400  and  _401
REMARK  167  A    between atoms: _403  and  _405
REMARK  168  A    between atoms: _405  and  _406
REMARK  169  A    between atoms: _405  and  _408
REMARK  170  A    between atoms: _408  and  _409
REMARK  171  A    between atoms: _412  and  _414
REMARK  172  A    between atoms: _414  and  _415
REMARK  173  A    between atoms: _417  and  _419
REMARK  174  A    between atoms: _419  and  _420
REMARK  175  A    between atoms: _422  and  _424
REMARK  176  A    between atoms: _424  and  _425
REMARK  177  A    between atoms: _424  and  _427
REMARK  178  A    between atoms: _427  and  _428
REMARK  179  A    between atoms: _431  and  _433
REMARK  180  A    between atoms: _433  and  _434
REMARK  181  A    between atoms: _436  and  _438
REMARK  182  A    between atoms: _438  and  _439
REMARK  183  A    between atoms: _441  and  _443
REMARK  184  A    between atoms: _443  and  _444
REMARK  185  A    between atoms: _443  and  _446
REMARK  186  A    between atoms: _446  and  _447
REMARK  187  A    between atoms: _453  and  _455
REMARK  188  A    between atoms: _455  and  _456
REMARK  189  A    between atoms: _455  and  _458
REMARK  190  A    between atoms: _458  and  _459
REMARK  191  A    between atoms: _462  and  _464
REMARK  192  A    between atoms: _464  and  _465
REMARK  193  A    between atoms: _464  and  _467
REMARK  194  A    between atoms: _470  and  _472
REMARK  195  A    between atoms: _472  and  _473
REMARK  196  A    between atoms: _472  and  _475
REMARK  197  A    between atoms: _475  and  _476
REMARK  198  A    between atoms: _479  and  _481
REMARK  199  A    between atoms: _481  and  _482
REMARK  200  A    between atoms: _481  and  _484
REMARK  201  A    between atoms: _484  and  _485
REMARK  202  A    between atoms: _489  and  _490
REMARK  203  A    between atoms: _495  and  _497
REMARK  204  A    between atoms: _497  and  _498
REMARK  205  A    between atoms: _497  and  _500
REMARK  206  A    between atoms: _503  and  _505
REMARK  207  A    between atoms: _505  and  _506
REMARK  208  A    between atoms: _505  and  _508
REMARK  209  A    between atoms: _508  and  _509
REMARK  210  A    between atoms: _514  and  _516
REMARK  211  A    between atoms: _516  and  _517
REMARK  212  A    between atoms: _516  and  _519
REMARK  213  A    between atoms: _519  and  _520
REMARK  214  A    between atoms: _523  and  _525
REMARK  215  A    between atoms: _525  and  _526
REMARK  216  A    between atoms: _525  and  _528
REMARK  217  A    between atoms: _528  and  _529
REMARK  218  A    between atoms: _532  and  _534
REMARK  219  A    between atoms: _534  and  _535
REMARK  220  A    between atoms: _537  and  _539
REMARK  221  A    between atoms: _539  and  _540
REMARK  222  A    between atoms: _539  and  _542
REMARK  223  A    between atoms: _542  and  _543
REMARK  224  A    between atoms: _543  and  _544
REMARK  225  A    between atoms: _544  and  _545
REMARK                            x       y       z     vdW  Elec       q    Type
REMARK                         _______ _______ _______ _____ _____    ______ ____
ROOT
ATOM      1  CA  LEU A   1      -3.842  28.935  26.488  0.00  0.00    +0.133 C 
ENDROOT
BRANCH   1   2
ATOM      2  N   LEU A   1      -4.936  28.981  25.526  0.00  0.00    -0.239 NA
ATOM      3  H   LEU A   1      -4.750  29.376  24.582  0.00  0.00    +0.142 HD
ENDBRANCH   1   2
BRANCH   1   4
ATOM      4  C   LEU A   1      -3.777  30.247  27.247  0.00  0.00    +0.224 C 
ATOM      5  O   LEU A   1      -3.818  31.315  26.646  0.00  0.00    -0.287 OA
ENDBRANCH   1   4
BRANCH   1   6
ATOM      6  CB  LEU A   1      -2.511  28.679  25.766  0.00  0.00    +0.025 C 
BRANCH   6   7
ATOM      7  CG  LEU A   1      -2.368  27.310  25.090  0.00  0.00    +0.002 C 
ATOM      8  CD2 LEU A   1      -2.127  26.206  26.137  0.00  0.00    +0.000 C 
ATOM      9  CD1 LEU A   1      -1.257  27.334  24.037  0.00  0.00    +0.000 C 
ENDBRANCH   6   7
ENDBRANCH   1   6
TORSDOF 4
REMARK  Name = ../refined-set-2016/2pym/2pym_pocket.pdb
REMARK  225 active torsions:
REMARK  status: ('A' for Active; 'I' for Inactive)
REMARK    1  A    between atoms: _1  and  _3
REMARK    2  A    between atoms: _3  and  _4
REMARK    3  A    between atoms: _3  and  _6
REMARK    4  A    between atoms: _6  and  _7
REMARK    5  A    between atoms: _7  and  _8
REMARK    6  A    between atoms: _8  and  _9
REMARK    7  A    between atoms: _18  and  _20
REMARK    8  A    between atoms: _20  and  _21
REMARK    9  A    between atoms: _20  and  _23
REMARK   10  A    between atoms: _23  and  _24
REMARK   11  A    between atoms: _27  and  _29
REMARK   12  A    between atoms: _29  and  _30
REMARK   13  A    between atoms: _29  and  _32
REMARK   14  A    between atoms: _32  and  _33
REMARK   15  A    between atoms: _36  and  _38
REMARK   16  A    between atoms: _38  and  _39
REMARK   17  A    between atoms: _38  and  _41
REMARK   18  A    between atoms: _41  and  _42
REMARK   19  A    between atoms: _45  and  _47
REMARK   20  A    between atoms: _47  and  _48
REMARK   21  A    between atoms: _47  and  _50
REMARK   22  A    between atoms: _50  and  _51
REMARK   23  A    between atoms: _54  and  _56
REMARK   24  A    between atoms: _56  and  _57
REMARK   25  A    between atoms: _59  and  _61
REMARK   26  A    between atoms: _61  and  _62
REMARK   27  A    between atoms: _65  and  _67
REMARK   28  A    between atoms: _67  and  _68
REMARK   29  A    between atoms: _67  and  _70
REMARK   30  A    between atoms: _70  and  _71
REMARK   31  A    between atoms: _74  and  _76
REMARK   32  A    between atoms: _76  and  _77
REMARK   33  A    between atoms: _76  and  _79
REMARK   34  A    between atoms: _79  and  _80
REMARK   35  A    between atoms: _85  and  _87
REMARK   36  A    between atoms: _87  and  _88
REMARK   37  A    between atoms: _87  and  _90
REMARK   38  A    between atoms: _90  and  _91
REMARK   39  A    between atoms: _94  and  _96
REMARK   40  A    between atoms: _96  and  _97
REMARK   41  A    between atoms: _96  and  _99
REMARK   42  A    between atoms: _102  and  _104
REMARK   43  A    between atoms: _104  and  _105
REMARK   44  A    between atoms: _104  and  _107
REMARK   45  A    between atoms: _107  and  _108
REMARK   46  A    between atoms: _108  and  _109
REMARK   47  A    between atoms: _109  and  _110
REMARK   48  A    between atoms: _110  and  _111
REMARK   49  A    between atoms: _115  and  _117
REMARK   50  A    between atoms: _117  and  _118
REMARK   51  A    between atoms: _117  and  _120
REMARK   52  A    between atoms: _120  and  _121
REMARK   53  A    between atoms: _124  and  _126
REMARK   54  A    between atoms: _126  and  _127
REMARK   55  A    between atoms: _129  and  _131
REMARK   56  A    between atoms: _131  and  _132
REMARK   57  A    between atoms: _134  and  _136
REMARK   58  A    between atoms: _136  and  _137
REMARK   59  A    between atoms: _136  and  _139
REMARK   60  A    between atoms: _139  and  _140
REMARK   61  A    between atoms: _143  and  _145
REMARK   62  A    between atoms: _145  and  _146
REMARK   63  A    between atoms: _148  and  _150
REMARK   64  A    between atoms: _150  and  _151
REMARK   65  A    between atoms: _153  and  _155
REMARK   66  A    between atoms: _155  and  _156
REMARK   67  A    between atoms: _155  and  _158
REMARK   68  A    between atoms: _158  and  _159
REMARK   69  A    between atoms: _162  and  _164
REMARK   70  A    between atoms: _164  and  _165
REMARK   71  A    between atoms: _164  and  _167
REMARK   72  A    between atoms: _167  and  _168
REMARK   73  A    between atoms: _172  and  _173
REMARK   74  A    between atoms: _178  and  _180
REMARK   75  A    between atoms: _180  and  _181
REMARK   76  A    between atoms: _180  and  _183
REMARK   77  A    between atoms: _183  and  _184
REMARK   78  A    between atoms: _188  and  _189
REMARK   79  A    between atoms: _194  and  _196
REMARK   80  A    between atoms: _196  and  _197
REMARK   81  A    between atoms: _196  and  _199
REMARK   82  A    between atoms: _202  and  _204
REMARK   83  A    between atoms: _204  and  _205
REMARK   84  A    between atoms: _204  and  _207
REMARK   85  A    between atoms: _207  and  _208
REMARK   86  A    between atoms: _213  and  _215
REMARK   87  A    between atoms: _215  and  _216
REMARK   88  A    between atoms: _215  and  _218
REMARK   89  A    between atoms: _218  and  _219
REMARK   90  A    between atoms: _222  and  _224
REMARK   91  A    between atoms: _224  and  _225
REMARK   92  A    between atoms: _224  and  _227
REMARK   93  A    between atoms: _227  and  _228
REMARK   94  A    between atoms: _231  and  _233
REMARK   95  A    between atoms: _233  and  _234
REMARK   96  A    between atoms: _236  and  _238
REMARK   97  A    between atoms: _238  and  _239
REMARK   98  A    between atoms: _238  and  _241
REMARK   99  A    between atoms: _241  and  _242
REMARK  100  A    between atoms: _242  and  _243
REMARK  101  A    between atoms: _243  and  _244
REMARK  102  A    between atoms: _253  and  _255
REMARK  103  A    between atoms: _255  and  _256
REMARK  104  A    between atoms: _255  and  _258
REMARK  105  A    between atoms: _258  and  _259
REMARK  106  A    between atoms: _262  and  _264
REMARK  107  A    between atoms: _264  and  _265
REMARK  108  A    between atoms: _264  and  _267
REMARK  109  A    between atoms: _267  and  _268
REMARK  110  A    between atoms: _268  and  _269
REMARK  111  A    between atoms: _269  and  _270
REMARK  112  A    between atoms: _279  and  _281
REMARK  113  A    between atoms: _281  and  _282
REMARK  114  A    between atoms: _281  and  _284
REMARK  115  A    between atoms: _284  and  _285
REMARK  116  A    between atoms: _288  and  _290
REMARK  117  A    between atoms: _290  and  _291
REMARK  118  A    between atoms: _290  and  _293
REMARK  119  A    between atoms: _293  and  _294
REMARK  120  A    between atoms: _297  and  _299
REMARK  121  A    between atoms: _299  and  _300
REMARK  122  A    between atoms: _299  and  _302
REMARK  123  A    between atoms: _302  and  _303
REMARK  124  A    between atoms: _306  and  _308
REMARK  125  A    between atoms: _308  and  _309
REMARK  126  A    between atoms: _308  and  _311
REMARK  127  A    between atoms: _311  and  _312
REMARK  128  A    between atoms: _315  and  _317
REMARK  129  A    between atoms: _317  and  _318
REMARK  130  A    between atoms: _317  and  _320
REMARK  131  A    between atoms: _320  and  _321
REMARK  132  A    between atoms: _324  and  _326
REMARK  133  A    between atoms: _326  and  _327
REMARK  134  A    between atoms: _329  and  _331
REMARK  135  A    between atoms: _331  and  _332
REMARK  136  A    between atoms: _335  and  _337
REMARK  137  A    between atoms: _337  and  _338
REMARK  138  A    between atoms: _337  and  _340
REMARK  139  A    between atoms: _340  and  _341
REMARK  140  A    between atoms: _344  and  _346
REMARK  141  A    between atoms: _346  and  _347
REMARK  142  A    between atoms: _346  and  _349
REMARK  143  A    between atoms: _349  and  _350
REMARK  144  A    between atoms: _355  and  _357
REMARK  145  A    between atoms: _357  and  _358
REMARK  146  A    between atoms: _357  and  _360
REMARK  147  A    between atoms: _360  and  _361
REMARK  148  A    between atoms: _364  and  _366
REMARK  149  A    between atoms: _366  and  _367
REMARK  150  A    between atoms: _366  and  _369
REMARK  151  A    between atoms: _372  and  _374
REMARK  152  A    between atoms: _374  and  _375
REMARK  153  A    between atoms: _374  and  _377
REMARK  154  A    between atoms: _377  and  _378
REMARK  155  A    between atoms: _381  and  _383
REMARK  156  A    between atoms: _383  and  _384
REMARK  157  A    between atoms: _383  and  _386
REMARK  158  A    between atoms: _386  and  _387
REMARK  159  A    between atoms: _387  and  _388
REMARK  160  A    between atoms: _388  and  _389
REMARK  161  A    between atoms: _389  and  _390
REMARK  162  A    between atoms: _394  and  _396
REMARK  163  A    between atoms: _396  and  _397
REMARK  164  A    between atoms: _396  and  _399
REMARK  165  A    between atoms: _399  and  _400
REMARK  166  A    between atoms: _400  and  _401
REMARK  167  A    between atoms: _403  and  _405
REMARK  168  A    between atoms: _405  and  _406
REMARK  169  A    between atoms: _405  and  _408
REMARK  170  A    between atoms: _408  and  _409
REMARK  171  A    between atoms: _412  and  _414
REMARK  172  A    between atoms: _414  and  _415
REMARK  173  A    between atoms: _417  and  _419
REMARK  174  A    between atoms: _419  and  _420
REMARK  175  A    between atoms: _422  and  _424
REMARK  176  A    between atoms: _424  and  _425
REMARK  177  A    between atoms: _424  and  _427
REMARK  178  A    between atoms: _427  and  _428
REMARK  179  A    between atoms: _431  and  _433
REMARK  180  A    between atoms: _433  and  _434
REMARK  181  A    between atoms: _436  and  _438
REMARK  182  A    between atoms: _438  and  _439
REMARK  183  A    between atoms: _441  and  _443
REMARK  184  A    between atoms: _443  and  _444
REMARK  185  A    between atoms: _443  and  _446
REMARK  186  A    between atoms: _446  and  _447
REMARK  187  A    between atoms: _453  and  _455
REMARK  188  A    between atoms: _455  and  _456
REMARK  189  A    between atoms: _455  and  _458
REMARK  190  A    between atoms: _458  and  _459
REMARK  191  A    between atoms: _462  and  _464
REMARK  192  A    between atoms: _464  and  _465
REMARK  193  A    between atoms: _464  and  _467
REMARK  194  A    between atoms: _470  and  _472
REMARK  195  A    between atoms: _472  and  _473
REMARK  196  A    between atoms: _472  and  _475
REMARK  197  A    between atoms: _475  and  _476
REMARK  198  A    between atoms: _479  and  _481
REMARK  199  A    between atoms: _481  and  _482
REMARK  200  A    between atoms: _481  and  _484
REMARK  201  A    between atoms: _484  and  _485
REMARK  202  A    between atoms: _489  and  _490
REMARK  203  A    between atoms: _495  and  _497
REMARK  204  A    between atoms: _497  and  _498
REMARK  205  A    between atoms: _497  and  _500
REMARK  206  A    between atoms: _503  and  _505
REMARK  207  A    between atoms: _505  and  _506
REMARK  208  A    between atoms: _505  and  _508
REMARK  209  A    between atoms: _508  and  _509
REMARK  210  A    between atoms: _514  and  _516
REMARK  211  A    between atoms: _516  and  _517
REMARK  212  A    between atoms: _516  and  _519
REMARK  213  A    between atoms: _519  and  _520
REMARK  214  A    between atoms: _523  and  _525
REMARK  215  A    between atoms: _525  and  _526
REMARK  216  A    between atoms: _525  and  _528
REMARK  217  A    between atoms: _528  and  _529
REMARK  218  A    between atoms: _532  and  _534
REMARK  219  A    between atoms: _534  and  _535
REMARK  220  A    between atoms: _537  and  _539
REMARK  221  A    between atoms: _539  and  _540
REMARK  222  A    between atoms: _539  and  _542
REMARK  223  A    between atoms: _542  and  _543
REMARK  224  A    between atoms: _543  and  _544
REMARK  225  A    between atoms: _544  and  _545
REMARK                            x       y       z     vdW  Elec       q    Type
REMARK                         _______ _______ _______ _____ _____    ______ ____
ROOT
ATOM      1  C   ALA A   6     -12.429  18.388  33.004  0.00  0.00    +0.241 C 
ATOM      2  N   ASP A   7     -12.661  17.343  33.804  0.00  0.00    -0.297 N 
ATOM      3  H   ASP A   7     -12.338  16.401  33.503  0.00  0.00    +0.150 HD
ATOM      4  O   ALA A   6     -12.774  19.533  33.274  0.00  0.00    -0.273 OA
ENDROOT
BRANCH   1   5
ATOM      5  CA  ALA A   6     -11.677  18.109  31.713  0.00  0.00    +0.149 C 
ATOM      6  CB  ALA A   6     -10.264  18.703  31.807  0.00  0.00    +0.031 C 
BRANCH   5   8
ATOM      7  C   GLY A   5     -13.097  17.974  29.721  0.00  0.00    +0.243 C 
ATOM      8  N   ALA A   6     -12.382  18.700  30.587  0.00  0.00    -0.297 N 
ATOM      9  H   ALA A   6     -12.328  19.729  30.449  0.00  0.00    +0.150 HD
ATOM     10  O   GLY A   5     -13.201  16.756  29.812  0.00  0.00    -0.273 OA
BRANCH   7  11
ATOM     11  CA  GLY A   5     -13.800  18.723  28.591  0.00  0.00    +0.176 C 
BRANCH  11  14
ATOM     12  C   THR A   4     -14.477  20.950  29.365  0.00  0.00    +0.243 C 
ATOM     13  O   THR A   4     -15.444  20.510  29.997  0.00  0.00    -0.273 OA
ATOM     14  N   GLY A   5     -13.663  20.175  28.639  0.00  0.00    -0.295 N 
ATOM     15  H   GLY A   5     -12.904  20.624  28.088  0.00  0.00    +0.150 HD
BRANCH  12  16
ATOM     16  CA  THR A   4     -14.162  22.452  29.372  0.00  0.00    +0.176 C 
BRANCH  16  19
ATOM     17  C   ASP A   3     -11.763  22.449  29.612  0.00  0.00    +0.241 C 
ATOM     18  O   ASP A   3     -11.864  21.849  30.669  0.00  0.00    -0.273 OA
ATOM     19  N   THR A   4     -12.818  22.739  28.868  0.00  0.00    -0.295 N 
ATOM     20  H   THR A   4     -12.693  23.169  27.929  0.00  0.00    +0.150 HD
BRANCH  17  21
ATOM     21  CA  ASP A   3     -10.408  22.836  29.069  0.00  0.00    +0.160 C 
BRANCH  21  23
ATOM     22  C   LEU A   2      -9.542  25.078  28.852  0.00  0.00    +0.241 C 
ATOM     23  N   ASP A   3      -9.952  24.090  29.643  0.00  0.00    -0.297 N 
ATOM     24  H   ASP A   3      -9.946  24.216  30.675  0.00  0.00    +0.150 HD
ATOM     25  O   LEU A   2      -9.768  25.108  27.632  0.00  0.00    -0.273 OA
BRANCH  22  26
ATOM     26  CA  LEU A   2      -8.743  26.191  29.523  0.00  0.00    +0.149 C 
BRANCH  26  29
ATOM     27  C   LEU A   1      -6.514  25.243  29.257  0.00  0.00    +0.238 C 
ATOM     28  O   LEU A   1      -6.720  24.413  30.144  0.00  0.00    -0.274 OA
ATOM     29  N   LEU A   2      -7.412  26.176  28.922  0.00  0.00    -0.297 N 
ATOM     30  H   LEU A   2      -7.158  26.902  28.222  0.00  0.00    +0.150 HD
BRANCH  27  31
ATOM     31  CA  LEU A   1      -5.188  25.242  28.491  0.00  0.00    +0.145 C 
BRANCH  31  32
ATOM     32  N   LEU A   1      -4.082  25.287  29.456  0.00  0.00    -0.238 NA
ATOM     33  H   LEU A   1      -3.793  24.402  29.919  0.00  0.00    +0.142 HD
ENDBRANCH  31  32
BRANCH  31  34
ATOM     34  CB  LEU A   1      -5.054  23.943  27.681  0.00  0.00    +0.026 C 
BRANCH  34  35
ATOM     35  CG  LEU A   1      -5.967  23.574  26.501  0.00  0.00    +0.002 C 
ATOM     36  CD2 LEU A   1      -5.753  22.106  26.183  0.00  0.00    +0.000 C 
ATOM     37  CD1 LEU A   1      -5.594  24.404  25.309  0.00  0.00    +0.000 C 
ENDBRANCH  34  35
ENDBRANCH  31  34
ENDBRANCH  27  31
ENDBRANCH  26  29
BRANCH  26  38
ATOM     38  CB  LEU A   2      -9.426  27.542  29.317  0.00  0.00    +0.029 C 
BRANCH  38  39
ATOM     39  CG  LEU A   2      -8.770  28.812  29.875  0.00  0.00    +0.002 C 
ATOM     40  CD2 LEU A   2      -8.556  28.677  31.379  0.00  0.00    +0.000 C 
ATOM     41  CD1 LEU A   2      -9.654  29.995  29.537  0.00  0.00    +0.000 C 
ENDBRANCH  38  39
ENDBRANCH  26  38
ENDBRANCH  22  26
ENDBRANCH  21  23
BRANCH  21  42
ATOM     42  CB  ASP A   3      -9.385  21.732  29.363  0.00  0.00    +0.143 C 
BRANCH  42  43
ATOM     43  CG  ASP A   3      -9.690  20.438  28.624  0.00  0.00    +0.367 C 
ATOM     44  OD2 ASP A   3      -8.815  19.564  28.622  0.00  0.00    -0.246 OA
ATOM     45  OD1 ASP A   3     -10.767  20.313  28.001  0.00  0.00    -0.246 OA
ENDBRANCH  42  43
ENDBRANCH  21  42
ENDBRANCH  17  21
ENDBRANCH  16  19
BRANCH  16  46
ATOM     46  CB  THR A   4     -15.238  23.198  28.575  0.00  0.00    +0.137 C 
ATOM     47  CG2 THR A   4     -15.093  24.706  28.742  0.00  0.00    +0.034 C 
BRANCH  46  48
ATOM     48  OG1 THR A   4     -15.123  22.870  27.181  0.00  0.00    -0.382 OA
ATOM     49  HG1 THR A   4     -15.243  21.895  27.062  0.00  0.00    +0.210 HD
ENDBRANCH  46  48
ENDBRANCH  16  46
ENDBRANCH  12  16
ENDBRANCH  11  14
ENDBRANCH   7  11
ENDBRANCH   5   8
ENDBRANCH   1   5
BRANCH   2  50
ATOM     50  CA  ASP A   7     -13.346  17.472  35.076  0.00  0.00    +0.160 C 
BRANCH  50  51
ATOM     51  C   ASP A   7     -12.383  18.113  36.069  0.00  0.00    +0.241 C 
ATOM     52  O   ASP A   7     -12.799  18.905  36.920  0.00  0.00    -0.273 OA
ATOM     53  N   ASN A   8     -11.099  17.766  35.932  0.00  0.00    -0.297 N 
ATOM     54  H   ASN A   8     -10.829  17.216  35.092  0.00  0.00    +0.150 HD
BRANCH  53  55
ATOM     55  CA  ASN A   8     -10.056  18.111  36.886  0.00  0.00    +0.158 C 
BRANCH  55  56
ATOM     56  C   ASN A   8      -8.937  18.919  36.247  0.00  0.00    +0.241 C 
ATOM     57  N   THR A   9      -8.208  19.627  37.097  0.00  0.00    -0.295 N 
ATOM     58  H   THR A   9      -8.458  19.609  38.106  0.00  0.00    +0.150 HD
ATOM     59  O   ASN A   8      -8.731  18.888  35.028  0.00  0.00    -0.273 OA
BRANCH  57  60
ATOM     60  CA  THR A   9      -7.080  20.422  36.676  0.00  0.00    +0.176 C 
BRANCH  60  61
ATOM     61  C   THR A   9      -5.827  19.554  36.862  0.00  0.00    +0.243 C 
ATOM     62  O   THR A   9      -5.640  18.946  37.937  0.00  0.00    -0.273 OA
ATOM     63  N   VAL A  10      -5.024  19.431  35.802  0.00  0.00    -0.297 N 
ATOM     64  H   VAL A  10      -5.238  19.989  34.951  0.00  0.00    +0.150 HD
BRANCH  63  65
ATOM     65  CA  VAL A  10      -3.847  18.540  35.783  0.00  0.00    +0.149 C 
BRANCH  65  66
ATOM     66  C   VAL A  10      -2.645  19.318  35.269  0.00  0.00    +0.241 C 
ATOM     67  N   LEU A  11      -1.590  19.345  36.075  0.00  0.00    -0.298 N 
ATOM     68  H   LEU A  11      -1.638  18.827  36.975  0.00  0.00    +0.150 HD
ATOM     69  O   VAL A  10      -2.670  19.848  34.154  0.00  0.00    -0.273 OA
BRANCH  67  70
ATOM     70  CA  LEU A  11      -0.370  20.068  35.753  0.00  0.00    +0.137 C 
BRANCH  70  71
ATOM     71  C   LEU A  11       0.804  19.135  35.556  0.00  0.00    +0.227 C 
ATOM     72  O   LEU A  11       0.892  18.095  36.208  0.00  0.00    -0.286 OA
ENDBRANCH  70  71
BRANCH  70  73
ATOM     73  CB  LEU A  11      -0.053  21.034  36.895  0.00  0.00    +0.028 C 
BRANCH  73  74
ATOM     74  CG  LEU A  11      -0.640  22.452  36.869  0.00  0.00    +0.002 C 
ATOM     75  CD2 LEU A  11      -0.870  22.949  38.286  0.00  0.00    +0.000 C 
ATOM     76  CD1 LEU A  11      -1.877  22.682  36.011  0.00  0.00    +0.000 C 
ENDBRANCH  73  74
ENDBRANCH  70  73
ENDBRANCH  67  70
ENDBRANCH  65  66
BRANCH  65  77
ATOM     77  CB  VAL A  10      -4.021  17.313  34.845  0.00  0.00    +0.027 C 
ATOM     78  CG2 VAL A  10      -2.929  16.247  35.136  0.00  0.00    +0.002 C 
ATOM     79  CG1 VAL A  10      -5.406  16.725  34.957  0.00  0.00    +0.002 C 
ENDBRANCH  65  77
ENDBRANCH  63  65
ENDBRANCH  60  61
BRANCH  60  80
ATOM     80  CB  THR A   9      -7.038  21.699  37.503  0.00  0.00    +0.137 C 
ATOM     81  CG2 THR A   9      -5.743  22.460  37.280  0.00  0.00    +0.034 C 
BRANCH  80  82
ATOM     82  OG1 THR A   9      -8.171  22.519  37.163  0.00  0.00    -0.382 OA
ATOM     83  HG1 THR A   9      -9.006  22.023  37.357  0.00  0.00    +0.210 HD
ENDBRANCH  80  82
ENDBRANCH  60  80
ENDBRANCH  57  60
ENDBRANCH  55  56
BRANCH  55  84
ATOM     84  CB  ASN A   8      -9.447  16.843  37.505  0.00  0.00    +0.114 C 
BRANCH  84  85
ATOM     85  CG  ASN A   8     -10.490  15.902  38.080  0.00  0.00    +0.222 C 
ATOM     86  ND2 ASN A   8     -11.054  16.265  39.215  0.00  0.00    -0.329 N 
ATOM     87 HD21 ASN A   8     -10.779  17.159  39.670  0.00  0.00    +0.145 HD
ATOM     88 HD22 ASN A   8     -11.774  15.657  39.656  0.00  0.00    +0.145 HD
ATOM     89  OD1 ASN A   8     -10.779  14.855  37.501  0.00  0.00    -0.275 OA
ENDBRANCH  84  85
ENDBRANCH  55  84
ENDBRANCH  53  55
ENDBRANCH  50  51
BRANCH  50  90
ATOM     90  CB  ASP A   7     -13.776  16.091  35.615  0.00  0.00    +0.143 C 
BRANCH  90  91
ATOM     91  CG  ASP A   7     -14.804  15.369  34.726  0.00  0.00    +0.367 C 
ATOM     92  OD2 ASP A   7     -14.968  14.150  34.932  0.00  0.00    -0.246 OA
ATOM     93  OD1 ASP A   7     -15.476  15.972  33.856  0.00  0.00    -0.246 OA
ENDBRANCH  90  91
ENDBRANCH  50  90
ENDBRANCH   2  50
TORSDOF 39
REMARK  Name = ../refined-set-2016/2pym/2pym_pocket.pdb
REMARK  225 active torsions:
REMARK  status: ('A' for Active; 'I' for Inactive)
REMARK    1  A    between atoms: _1  and  _3
REMARK    2  A    between atoms: _3  and  _4
REMARK    3  A    between atoms: _3  and  _6
REMARK    4  A    between atoms: _6  and  _7
REMARK    5  A    between atoms: _7  and  _8
REMARK    6  A    between atoms: _8  and  _9
REMARK    7  A    between atoms: _18  and  _20
REMARK    8  A    between atoms: _20  and  _21
REMARK    9  A    between atoms: _20  and  _23
REMARK   10  A    between atoms: _23  and  _24
REMARK   11  A    between atoms: _27  and  _29
REMARK   12  A    between atoms: _29  and  _30
REMARK   13  A    between atoms: _29  and  _32
REMARK   14  A    between atoms: _32  and  _33
REMARK   15  A    between atoms: _36  and  _38
REMARK   16  A    between atoms: _38  and  _39
REMARK   17  A    between atoms: _38  and  _41
REMARK   18  A    between atoms: _41  and  _42
REMARK   19  A    between atoms: _45  and  _47
REMARK   20  A    between atoms: _47  and  _48
REMARK   21  A    between atoms: _47  and  _50
REMARK   22  A    between atoms: _50  and  _51
REMARK   23  A    between atoms: _54  and  _56
REMARK   24  A    between atoms: _56  and  _57
REMARK   25  A    between atoms: _59  and  _61
REMARK   26  A    between atoms: _61  and  _62
REMARK   27  A    between atoms: _65  and  _67
REMARK   28  A    between atoms: _67  and  _68
REMARK   29  A    between atoms: _67  and  _70
REMARK   30  A    between atoms: _70  and  _71
REMARK   31  A    between atoms: _74  and  _76
REMARK   32  A    between atoms: _76  and  _77
REMARK   33  A    between atoms: _76  and  _79
REMARK   34  A    between atoms: _79  and  _80
REMARK   35  A    between atoms: _85  and  _87
REMARK   36  A    between atoms: _87  and  _88
REMARK   37  A    between atoms: _87  and  _90
REMARK   38  A    between atoms: _90  and  _91
REMARK   39  A    between atoms: _94  and  _96
REMARK   40  A    between atoms: _96  and  _97
REMARK   41  A    between atoms: _96  and  _99
REMARK   42  A    between atoms: _102  and  _104
REMARK   43  A    between atoms: _104  and  _105
REMARK   44  A    between atoms: _104  and  _107
REMARK   45  A    between atoms: _107  and  _108
REMARK   46  A    between atoms: _108  and  _109
REMARK   47  A    between atoms: _109  and  _110
REMARK   48  A    between atoms: _110  and  _111
REMARK   49  A    between atoms: _115  and  _117
REMARK   50  A    between atoms: _117  and  _118
REMARK   51  A    between atoms: _117  and  _120
REMARK   52  A    between atoms: _120  and  _121
REMARK   53  A    between atoms: _124  and  _126
REMARK   54  A    between atoms: _126  and  _127
REMARK   55  A    between atoms: _129  and  _131
REMARK   56  A    between atoms: _131  and  _132
REMARK   57  A    between atoms: _134  and  _136
REMARK   58  A    between atoms: _136  and  _137
REMARK   59  A    between atoms: _136  and  _139
REMARK   60  A    between atoms: _139  and  _140
REMARK   61  A    between atoms: _143  and  _145
REMARK   62  A    between atoms: _145  and  _146
REMARK   63  A    between atoms: _148  and  _150
REMARK   64  A    between atoms: _150  and  _151
REMARK   65  A    between atoms: _153  and  _155
REMARK   66  A    between atoms: _155  and  _156
REMARK   67  A    between atoms: _155  and  _158
REMARK   68  A    between atoms: _158  and  _159
REMARK   69  A    between atoms: _162  and  _164
REMARK   70  A    between atoms: _164  and  _165
REMARK   71  A    between atoms: _164  and  _167
REMARK   72  A    between atoms: _167  and  _168
REMARK   73  A    between atoms: _172  and  _173
REMARK   74  A    between atoms: _178  and  _180
REMARK   75  A    between atoms: _180  and  _181
REMARK   76  A    between atoms: _180  and  _183
REMARK   77  A    between atoms: _183  and  _184
REMARK   78  A    between atoms: _188  and  _189
REMARK   79  A    between atoms: _194  and  _196
REMARK   80  A    between atoms: _196  and  _197
REMARK   81  A    between atoms: _196  and  _199
REMARK   82  A    between atoms: _202  and  _204
REMARK   83  A    between atoms: _204  and  _205
REMARK   84  A    between atoms: _204  and  _207
REMARK   85  A    between atoms: _207  and  _208
REMARK   86  A    between atoms: _213  and  _215
REMARK   87  A    between atoms: _215  and  _216
REMARK   88  A    between atoms: _215  and  _218
REMARK   89  A    between atoms: _218  and  _219
REMARK   90  A    between atoms: _222  and  _224
REMARK   91  A    between atoms: _224  and  _225
REMARK   92  A    between atoms: _224  and  _227
REMARK   93  A    between atoms: _227  and  _228
REMARK   94  A    between atoms: _231  and  _233
REMARK   95  A    between atoms: _233  and  _234
REMARK   96  A    between atoms: _236  and  _238
REMARK   97  A    between atoms: _238  and  _239
REMARK   98  A    between atoms: _238  and  _241
REMARK   99  A    between atoms: _241  and  _242
REMARK  100  A    between atoms: _242  and  _243
REMARK  101  A    between atoms: _243  and  _244
REMARK  102  A    between atoms: _253  and  _255
REMARK  103  A    between atoms: _255  and  _256
REMARK  104  A    between atoms: _255  and  _258
REMARK  105  A    between atoms: _258  and  _259
REMARK  106  A    between atoms: _262  and  _264
REMARK  107  A    between atoms: _264  and  _265
REMARK  108  A    between atoms: _264  and  _267
REMARK  109  A    between atoms: _267  and  _268
REMARK  110  A    between atoms: _268  and  _269
REMARK  111  A    between atoms: _269  and  _270
REMARK  112  A    between atoms: _279  and  _281
REMARK  113  A    between atoms: _281  and  _282
REMARK  114  A    between atoms: _281  and  _284
REMARK  115  A    between atoms: _284  and  _285
REMARK  116  A    between atoms: _288  and  _290
REMARK  117  A    between atoms: _290  and  _291
REMARK  118  A    between atoms: _290  and  _293
REMARK  119  A    between atoms: _293  and  _294
REMARK  120  A    between atoms: _297  and  _299
REMARK  121  A    between atoms: _299  and  _300
REMARK  122  A    between atoms: _299  and  _302
REMARK  123  A    between atoms: _302  and  _303
REMARK  124  A    between atoms: _306  and  _308
REMARK  125  A    between atoms: _308  and  _309
REMARK  126  A    between atoms: _308  and  _311
REMARK  127  A    between atoms: _311  and  _312
REMARK  128  A    between atoms: _315  and  _317
REMARK  129  A    between atoms: _317  and  _318
REMARK  130  A    between atoms: _317  and  _320
REMARK  131  A    between atoms: _320  and  _321
REMARK  132  A    between atoms: _324  and  _326
REMARK  133  A    between atoms: _326  and  _327
REMARK  134  A    between atoms: _329  and  _331
REMARK  135  A    between atoms: _331  and  _332
REMARK  136  A    between atoms: _335  and  _337
REMARK  137  A    between atoms: _337  and  _338
REMARK  138  A    between atoms: _337  and  _340
REMARK  139  A    between atoms: _340  and  _341
REMARK  140  A    between atoms: _344  and  _346
REMARK  141  A    between atoms: _346  and  _347
REMARK  142  A    between atoms: _346  and  _349
REMARK  143  A    between atoms: _349  and  _350
REMARK  144  A    between atoms: _355  and  _357
REMARK  145  A    between atoms: _357  and  _358
REMARK  146  A    between atoms: _357  and  _360
REMARK  147  A    between atoms: _360  and  _361
REMARK  148  A    between atoms: _364  and  _366
REMARK  149  A    between atoms: _366  and  _367
REMARK  150  A    between atoms: _366  and  _369
REMARK  151  A    between atoms: _372  and  _374
REMARK  152  A    between atoms: _374  and  _375
REMARK  153  A    between atoms: _374  and  _377
REMARK  154  A    between atoms: _377  and  _378
REMARK  155  A    between atoms: _381  and  _383
REMARK  156  A    between atoms: _383  and  _384
REMARK  157  A    between atoms: _383  and  _386
REMARK  158  A    between atoms: _386  and  _387
REMARK  159  A    between atoms: _387  and  _388
REMARK  160  A    between atoms: _388  and  _389
REMARK  161  A    between atoms: _389  and  _390
REMARK  162  A    between atoms: _394  and  _396
REMARK  163  A    between atoms: _396  and  _397
REMARK  164  A    between atoms: _396  and  _399
REMARK  165  A    between atoms: _399  and  _400
REMARK  166  A    between atoms: _400  and  _401
REMARK  167  A    between atoms: _403  and  _405
REMARK  168  A    between atoms: _405  and  _406
REMARK  169  A    between atoms: _405  and  _408
REMARK  170  A    between atoms: _408  and  _409
REMARK  171  A    between atoms: _412  and  _414
REMARK  172  A    between atoms: _414  and  _415
REMARK  173  A    between atoms: _417  and  _419
REMARK  174  A    between atoms: _419  and  _420
REMARK  175  A    between atoms: _422  and  _424
REMARK  176  A    between atoms: _424  and  _425
REMARK  177  A    between atoms: _424  and  _427
REMARK  178  A    between atoms: _427  and  _428
REMARK  179  A    between atoms: _431  and  _433
REMARK  180  A    between atoms: _433  and  _434
REMARK  181  A    between atoms: _436  and  _438
REMARK  182  A    between atoms: _438  and  _439
REMARK  183  A    between atoms: _441  and  _443
REMARK  184  A    between atoms: _443  and  _444
REMARK  185  A    between atoms: _443  and  _446
REMARK  186  A    between atoms: _446  and  _447
REMARK  187  A    between atoms: _453  and  _455
REMARK  188  A    between atoms: _455  and  _456
REMARK  189  A    between atoms: _455  and  _458
REMARK  190  A    between atoms: _458  and  _459
REMARK  191  A    between atoms: _462  and  _464
REMARK  192  A    between atoms: _464  and  _465
REMARK  193  A    between atoms: _464  and  _467
REMARK  194  A    between atoms: _470  and  _472
REMARK  195  A    between atoms: _472  and  _473
REMARK  196  A    between atoms: _472  and  _475
REMARK  197  A    between atoms: _475  and  _476
REMARK  198  A    between atoms: _479  and  _481
REMARK  199  A    between atoms: _481  and  _482
REMARK  200  A    between atoms: _481  and  _484
REMARK  201  A    between atoms: _484  and  _485
REMARK  202  A    between atoms: _489  and  _490
REMARK  203  A    between atoms: _495  and  _497
REMARK  204  A    between atoms: _497  and  _498
REMARK  205  A    between atoms: _497  and  _500
REMARK  206  A    between atoms: _503  and  _505
REMARK  207  A    between atoms: _505  and  _506
REMARK  208  A    between atoms: _505  and  _508
REMARK  209  A    between atoms: _508  and  _509
REMARK  210  A    between atoms: _514  and  _516
REMARK  211  A    between atoms: _516  and  _517
REMARK  212  A    between atoms: _516  and  _519
REMARK  213  A    between atoms: _519  and  _520
REMARK  214  A    between atoms: _523  and  _525
REMARK  215  A    between atoms: _525  and  _526
REMARK  216  A    between atoms: _525  and  _528
REMARK  217  A    between atoms: _528  and  _529
REMARK  218  A    between atoms: _532  and  _534
REMARK  219  A    between atoms: _534  and  _535
REMARK  220  A    between atoms: _537  and  _539
REMARK  221  A    between atoms: _539  and  _540
REMARK  222  A    between atoms: _539  and  _542
REMARK  223  A    between atoms: _542  and  _543
REMARK  224  A    between atoms: _543  and  _544
REMARK  225  A    between atoms: _544  and  _545
REMARK                            x       y       z     vdW  Elec       q    Type
REMARK                         _______ _______ _______ _____ _____    ______ ____
ROOT
ATOM      1  C   GLY A   5      -8.637   9.546  27.805  0.00  0.00    +0.243 C 
ATOM      2  O   GLY A   5      -9.011   8.374  27.931  0.00  0.00    -0.273 OA
ATOM      3  N   ILE A   6      -8.437  10.117  26.625  0.00  0.00    -0.297 N 
ATOM      4  H   ILE A   6      -8.305  11.147  26.564  0.00  0.00    +0.150 HD
ENDROOT
BRANCH   3   5
ATOM      5  CA  ILE A   6      -8.401   9.313  25.420  0.00  0.00    +0.149 C 
BRANCH   5   6
ATOM      6  C   ILE A   6      -7.102   8.495  25.428  0.00  0.00    +0.241 C 
ATOM      7  O   ILE A   6      -6.048   8.985  25.854  0.00  0.00    -0.273 OA
ATOM      8  N   GLY A   7      -7.196   7.238  25.018  0.00  0.00    -0.295 N 
ATOM      9  H   GLY A   7      -8.133   6.838  24.812  0.00  0.00    +0.150 HD
BRANCH   8  10
ATOM     10  CA  GLY A   7      -6.008   6.404  24.850  0.00  0.00    +0.176 C 
BRANCH  10  11
ATOM     11  C   GLY A   7      -5.580   5.591  26.055  0.00  0.00    +0.243 C 
ATOM     12  N   GLY A   8      -5.793   6.122  27.254  0.00  0.00    -0.295 N 
ATOM     13  H   GLY A   8      -6.246   7.055  27.329  0.00  0.00    +0.150 HD
ATOM     14  O   GLY A   7      -5.048   4.498  25.899  0.00  0.00    -0.273 OA
BRANCH  12  15
ATOM     15  CA  GLY A   8      -5.400   5.414  28.467  0.00  0.00    +0.176 C 
BRANCH  15  16
ATOM     16  C   GLY A   8      -5.417   6.232  29.742  0.00  0.00    +0.243 C 
ATOM     17  N   PHE A   9      -4.636   5.769  30.716  0.00  0.00    -0.297 N 
ATOM     18  H   PHE A   9      -4.042   4.937  30.526  0.00  0.00    +0.150 HD
ATOM     19  O   GLY A   8      -6.098   7.263  29.831  0.00  0.00    -0.273 OA
BRANCH  17  20
ATOM     20  CA  PHE A   9      -4.579   6.382  32.041  0.00  0.00    +0.153 C 
BRANCH  20  21
ATOM     21  C   PHE A   9      -3.167   6.828  32.402  0.00  0.00    +0.241 C 
ATOM     22  N   ILE A  10      -3.080   7.805  33.303  0.00  0.00    -0.298 N 
ATOM     23  H   ILE A  10      -3.955   8.283  33.600  0.00  0.00    +0.150 HD
ATOM     24  O   PHE A   9      -2.183   6.294  31.879  0.00  0.00    -0.273 OA
BRANCH  22  25
ATOM     25  CA  ILE A  10      -1.817   8.239  33.895  0.00  0.00    +0.137 C 
BRANCH  25  26
ATOM     26  C   ILE A  10      -1.939   8.243  35.421  0.00  0.00    +0.227 C 
ATOM     27  O   ILE A  10      -3.041   8.399  35.953  0.00  0.00    -0.286 OA
ENDBRANCH  25  26
BRANCH  25  28
ATOM     28  CB  ILE A  10      -1.360   9.637  33.411  0.00  0.00    +0.026 C 
ATOM     29  CG2 ILE A  10      -1.035   9.624  31.910  0.00  0.00    +0.002 C 
BRANCH  28  30
ATOM     30  CG1 ILE A  10      -2.382  10.721  33.781  0.00  0.00    +0.002 C 
ATOM     31  CD1 ILE A  10      -1.850  12.127  33.672  0.00  0.00    +0.000 C 
ENDBRANCH  28  30
ENDBRANCH  25  28
ENDBRANCH  22  25
ENDBRANCH  20  21
BRANCH  20  32
ATOM     32  CB  PHE A   9      -5.065   5.391  33.100  0.00  0.00    +0.055 C 
BRANCH  32  33
ATOM     33  CG  PHE A   9      -4.194   4.172  33.234  0.00  0.00    -0.020 A 
ATOM     34  CD2 PHE A   9      -3.079   4.182  34.065  0.00  0.00    -0.004 A 
ATOM     35  CE2 PHE A   9      -2.267   3.056  34.188  0.00  0.00    -0.000 A 
ATOM     36  CZ  PHE A   9      -2.569   1.907  33.475  0.00  0.00    -0.000 A 
ATOM     37  CE1 PHE A   9      -3.677   1.885  32.640  0.00  0.00    -0.000 A 
ATOM     38  CD1 PHE A   9      -4.482   3.016  32.521  0.00  0.00    -0.004 A 
ENDBRANCH  32  33
ENDBRANCH  20  32
ENDBRANCH  17  20
ENDBRANCH  15  16
ENDBRANCH  12  15
ENDBRANCH  10  11
ENDBRANCH   8  10
ENDBRANCH   5   6
BRANCH   5  39
ATOM     39  CB  ILE A   6      -8.575  10.163  24.143  0.00  0.00    +0.027 C 
ATOM     40  CG2 ILE A   6      -7.620   9.696  23.041  0.00  0.00    +0.002 C 
BRANCH  39  41
ATOM     41  CG1 ILE A   6     -10.028  10.042  23.665  0.00  0.00    +0.002 C 
ATOM     42  CD1 ILE A   6     -10.373  10.781  22.388  0.00  0.00    +0.000 C 
ENDBRANCH  39  41
ENDBRANCH   5  39
ENDBRANCH   3   5
BRANCH   1  43
ATOM     43  CA  GLY A   5      -8.391  10.406  29.015  0.00  0.00    +0.176 C 
BRANCH  43  46
ATOM     44  C   GLY A   4      -8.500   9.618  31.310  0.00  0.00    +0.243 C 
ATOM     45  O   GLY A   4      -9.231  10.543  31.675  0.00  0.00    -0.273 OA
ATOM     46  N   GLY A   5      -7.977   9.529  30.094  0.00  0.00    -0.295 N 
ATOM     47  H   GLY A   5      -7.249   8.810  29.909  0.00  0.00    +0.150 HD
BRANCH  44  48
ATOM     48  CA  GLY A   4      -8.116   8.517  32.261  0.00  0.00    +0.176 C 
BRANCH  48  51
ATOM     49  C   ILE A   3      -6.884   9.258  34.209  0.00  0.00    +0.241 C 
ATOM     50  O   ILE A   3      -5.788   9.070  33.669  0.00  0.00    -0.273 OA
ATOM     51  N   GLY A   4      -8.043   9.021  33.615  0.00  0.00    -0.295 N 
ATOM     52  H   GLY A   4      -8.925   9.202  34.136  0.00  0.00    +0.150 HD
BRANCH  49  53
ATOM     53  CA  ILE A   3      -6.981   9.758  35.639  0.00  0.00    +0.149 C 
BRANCH  53  56
ATOM     54  C   MET A   2      -6.380   8.530  37.635  0.00  0.00    +0.241 C 
ATOM     55  O   MET A   2      -7.515   8.653  38.094  0.00  0.00    -0.273 OA
ATOM     56  N   ILE A   3      -6.005   9.080  36.490  0.00  0.00    -0.297 N 
ATOM     57  H   ILE A   3      -5.009   9.029  36.194  0.00  0.00    +0.150 HD
BRANCH  54  58
ATOM     58  CA  MET A   2      -5.333   7.719  38.375  0.00  0.00    +0.149 C 
BRANCH  58  61
ATOM     59  C   LYS A   1      -4.323   8.519  40.447  0.00  0.00    +0.238 C 
ATOM     60  O   LYS A   1      -3.194   8.604  39.955  0.00  0.00    -0.274 OA
ATOM     61  N   MET A   2      -5.379   8.053  39.788  0.00  0.00    -0.297 N 
ATOM     62  H   MET A   2      -6.273   7.922  40.304  0.00  0.00    +0.150 HD
BRANCH  59  63
ATOM     63  CA  LYS A   1      -4.574   8.926  41.888  0.00  0.00    +0.145 C 
BRANCH  63  64
ATOM     64  N   LYS A   1      -3.322   8.966  42.630  0.00  0.00    -0.238 NA
ATOM     65  H   LYS A   1      -2.437   9.191  42.132  0.00  0.00    +0.142 HD
ENDBRANCH  63  64
BRANCH  63  66
ATOM     66  CB  LYS A   1      -5.283  10.284  41.943  0.00  0.00    +0.026 C 
BRANCH  66  67
ATOM     67  CG  LYS A   1      -6.795  10.179  42.043  0.00  0.00    -0.000 C 
BRANCH  67  68
ATOM     68  CD  LYS A   1      -7.486  11.409  41.474  0.00  0.00    -0.024 C 
BRANCH  68  69
ATOM     69  CE  LYS A   1      -8.996  11.307  41.646  0.00  0.00    -0.086 C 
BRANCH  69  70
ATOM     70  NZ  LYS A   1      -9.707  12.490  41.093  0.00  0.00    +0.380 N 
ATOM     71  HZ1 LYS A   1      -9.383  13.348  41.583  0.00  0.00    -0.089 HD
ATOM     72  HZ2 LYS A   1     -10.731  12.374  41.234  0.00  0.00    -0.089 HD
ATOM     73  HZ3 LYS A   1      -9.502  12.572  40.077  0.00  0.00    -0.089 HD
ENDBRANCH  69  70
ENDBRANCH  68  69
ENDBRANCH  67  68
ENDBRANCH  66  67
ENDBRANCH  63  66
ENDBRANCH  59  63
ENDBRANCH  58  61
BRANCH  58  74
ATOM     74  CB  MET A   2      -5.612   6.232  38.144  0.00  0.00    +0.041 C 
BRANCH  74  75
ATOM     75  CG  MET A   2      -4.741   5.283  38.941  0.00  0.00    +0.060 C 
BRANCH  75  76
ATOM     76  SD  MET A   2      -4.051   4.003  37.881  0.00  0.00    -0.139 S 
ATOM     77  CE  MET A   2      -2.695   4.954  37.196  0.00  0.00    +0.069 C 
ENDBRANCH  75  76
ENDBRANCH  74  75
ENDBRANCH  58  74
ENDBRANCH  54  58
ENDBRANCH  53  56
BRANCH  53  78
ATOM     78  CB  ILE A   3      -6.871  11.302  35.694  0.00  0.00    +0.027 C 
ATOM     79  CG2 ILE A   3      -7.304  11.822  37.069  0.00  0.00    +0.002 C 
BRANCH  78  80
ATOM     80  CG1 ILE A   3      -5.462  11.756  35.326  0.00  0.00    +0.002 C 
ATOM     81  CD1 ILE A   3      -5.238  13.248  35.397  0.00  0.00    +0.000 C 
ENDBRANCH  78  80
ENDBRANCH  53  78
ENDBRANCH  49  53
ENDBRANCH  48  51
ENDBRANCH  44  48
ENDBRANCH  43  46
ENDBRANCH   1  43
TORSDOF 36
REMARK  Name = ../refined-set-2016/2pym/2pym_pocket.pdb
REMARK  225 active torsions:
REMARK  status: ('A' for Active; 'I' for Inactive)
REMARK    1  A    between atoms: _1  and  _3
REMARK    2  A    between atoms: _3  and  _4
REMARK    3  A    between atoms: _3  and  _6
REMARK    4  A    between atoms: _6  and  _7
REMARK    5  A    between atoms: _7  and  _8
REMARK    6  A    between atoms: _8  and  _9
REMARK    7  A    between atoms: _18  and  _20
REMARK    8  A    between atoms: _20  and  _21
REMARK    9  A    between atoms: _20  and  _23
REMARK   10  A    between atoms: _23  and  _24
REMARK   11  A    between atoms: _27  and  _29
REMARK   12  A    between atoms: _29  and  _30
REMARK   13  A    between atoms: _29  and  _32
REMARK   14  A    between atoms: _32  and  _33
REMARK   15  A    between atoms: _36  and  _38
REMARK   16  A    between atoms: _38  and  _39
REMARK   17  A    between atoms: _38  and  _41
REMARK   18  A    between atoms: _41  and  _42
REMARK   19  A    between atoms: _45  and  _47
REMARK   20  A    between atoms: _47  and  _48
REMARK   21  A    between atoms: _47  and  _50
REMARK   22  A    between atoms: _50  and  _51
REMARK   23  A    between atoms: _54  and  _56
REMARK   24  A    between atoms: _56  and  _57
REMARK   25  A    between atoms: _59  and  _61
REMARK   26  A    between atoms: _61  and  _62
REMARK   27  A    between atoms: _65  and  _67
REMARK   28  A    between atoms: _67  and  _68
REMARK   29  A    between atoms: _67  and  _70
REMARK   30  A    between atoms: _70  and  _71
REMARK   31  A    between atoms: _74  and  _76
REMARK   32  A    between atoms: _76  and  _77
REMARK   33  A    between atoms: _76  and  _79
REMARK   34  A    between atoms: _79  and  _80
REMARK   35  A    between atoms: _85  and  _87
REMARK   36  A    between atoms: _87  and  _88
REMARK   37  A    between atoms: _87  and  _90
REMARK   38  A    between atoms: _90  and  _91
REMARK   39  A    between atoms: _94  and  _96
REMARK   40  A    between atoms: _96  and  _97
REMARK   41  A    between atoms: _96  and  _99
REMARK   42  A    between atoms: _102  and  _104
REMARK   43  A    between atoms: _104  and  _105
REMARK   44  A    between atoms: _104  and  _107
REMARK   45  A    between atoms: _107  and  _108
REMARK   46  A    between atoms: _108  and  _109
REMARK   47  A    between atoms: _109  and  _110
REMARK   48  A    between atoms: _110  and  _111
REMARK   49  A    between atoms: _115  and  _117
REMARK   50  A    between atoms: _117  and  _118
REMARK   51  A    between atoms: _117  and  _120
REMARK   52  A    between atoms: _120  and  _121
REMARK   53  A    between atoms: _124  and  _126
REMARK   54  A    between atoms: _126  and  _127
REMARK   55  A    between atoms: _129  and  _131
REMARK   56  A    between atoms: _131  and  _132
REMARK   57  A    between atoms: _134  and  _136
REMARK   58  A    between atoms: _136  and  _137
REMARK   59  A    between atoms: _136  and  _139
REMARK   60  A    between atoms: _139  and  _140
REMARK   61  A    between atoms: _143  and  _145
REMARK   62  A    between atoms: _145  and  _146
REMARK   63  A    between atoms: _148  and  _150
REMARK   64  A    between atoms: _150  and  _151
REMARK   65  A    between atoms: _153  and  _155
REMARK   66  A    between atoms: _155  and  _156
REMARK   67  A    between atoms: _155  and  _158
REMARK   68  A    between atoms: _158  and  _159
REMARK   69  A    between atoms: _162  and  _164
REMARK   70  A    between atoms: _164  and  _165
REMARK   71  A    between atoms: _164  and  _167
REMARK   72  A    between atoms: _167  and  _168
REMARK   73  A    between atoms: _172  and  _173
REMARK   74  A    between atoms: _178  and  _180
REMARK   75  A    between atoms: _180  and  _181
REMARK   76  A    between atoms: _180  and  _183
REMARK   77  A    between atoms: _183  and  _184
REMARK   78  A    between atoms: _188  and  _189
REMARK   79  A    between atoms: _194  and  _196
REMARK   80  A    between atoms: _196  and  _197
REMARK   81  A    between atoms: _196  and  _199
REMARK   82  A    between atoms: _202  and  _204
REMARK   83  A    between atoms: _204  and  _205
REMARK   84  A    between atoms: _204  and  _207
REMARK   85  A    between atoms: _207  and  _208
REMARK   86  A    between atoms: _213  and  _215
REMARK   87  A    between atoms: _215  and  _216
REMARK   88  A    between atoms: _215  and  _218
REMARK   89  A    between atoms: _218  and  _219
REMARK   90  A    between atoms: _222  and  _224
REMARK   91  A    between atoms: _224  and  _225
REMARK   92  A    between atoms: _224  and  _227
REMARK   93  A    between atoms: _227  and  _228
REMARK   94  A    between atoms: _231  and  _233
REMARK   95  A    between atoms: _233  and  _234
REMARK   96  A    between atoms: _236  and  _238
REMARK   97  A    between atoms: _238  and  _239
REMARK   98  A    between atoms: _238  and  _241
REMARK   99  A    between atoms: _241  and  _242
REMARK  100  A    between atoms: _242  and  _243
REMARK  101  A    between atoms: _243  and  _244
REMARK  102  A    between atoms: _253  and  _255
REMARK  103  A    between atoms: _255  and  _256
REMARK  104  A    between atoms: _255  and  _258
REMARK  105  A    between atoms: _258  and  _259
REMARK  106  A    between atoms: _262  and  _264
REMARK  107  A    between atoms: _264  and  _265
REMARK  108  A    between atoms: _264  and  _267
REMARK  109  A    between atoms: _267  and  _268
REMARK  110  A    between atoms: _268  and  _269
REMARK  111  A    between atoms: _269  and  _270
REMARK  112  A    between atoms: _279  and  _281
REMARK  113  A    between atoms: _281  and  _282
REMARK  114  A    between atoms: _281  and  _284
REMARK  115  A    between atoms: _284  and  _285
REMARK  116  A    between atoms: _288  and  _290
REMARK  117  A    between atoms: _290  and  _291
REMARK  118  A    between atoms: _290  and  _293
REMARK  119  A    between atoms: _293  and  _294
REMARK  120  A    between atoms: _297  and  _299
REMARK  121  A    between atoms: _299  and  _300
REMARK  122  A    between atoms: _299  and  _302
REMARK  123  A    between atoms: _302  and  _303
REMARK  124  A    between atoms: _306  and  _308
REMARK  125  A    between atoms: _308  and  _309
REMARK  126  A    between atoms: _308  and  _311
REMARK  127  A    between atoms: _311  and  _312
REMARK  128  A    between atoms: _315  and  _317
REMARK  129  A    between atoms: _317  and  _318
REMARK  130  A    between atoms: _317  and  _320
REMARK  131  A    between atoms: _320  and  _321
REMARK  132  A    between atoms: _324  and  _326
REMARK  133  A    between atoms: _326  and  _327
REMARK  134  A    between atoms: _329  and  _331
REMARK  135  A    between atoms: _331  and  _332
REMARK  136  A    between atoms: _335  and  _337
REMARK  137  A    between atoms: _337  and  _338
REMARK  138  A    between atoms: _337  and  _340
REMARK  139  A    between atoms: _340  and  _341
REMARK  140  A    between atoms: _344  and  _346
REMARK  141  A    between atoms: _346  and  _347
REMARK  142  A    between atoms: _346  and  _349
REMARK  143  A    between atoms: _349  and  _350
REMARK  144  A    between atoms: _355  and  _357
REMARK  145  A    between atoms: _357  and  _358
REMARK  146  A    between atoms: _357  and  _360
REMARK  147  A    between atoms: _360  and  _361
REMARK  148  A    between atoms: _364  and  _366
REMARK  149  A    between atoms: _366  and  _367
REMARK  150  A    between atoms: _366  and  _369
REMARK  151  A    between atoms: _372  and  _374
REMARK  152  A    between atoms: _374  and  _375
REMARK  153  A    between atoms: _374  and  _377
REMARK  154  A    between atoms: _377  and  _378
REMARK  155  A    between atoms: _381  and  _383
REMARK  156  A    between atoms: _383  and  _384
REMARK  157  A    between atoms: _383  and  _386
REMARK  158  A    between atoms: _386  and  _387
REMARK  159  A    between atoms: _387  and  _388
REMARK  160  A    between atoms: _388  and  _389
REMARK  161  A    between atoms: _389  and  _390
REMARK  162  A    between atoms: _394  and  _396
REMARK  163  A    between atoms: _396  and  _397
REMARK  164  A    between atoms: _396  and  _399
REMARK  165  A    between atoms: _399  and  _400
REMARK  166  A    between atoms: _400  and  _401
REMARK  167  A    between atoms: _403  and  _405
REMARK  168  A    between atoms: _405  and  _406
REMARK  169  A    between atoms: _405  and  _408
REMARK  170  A    between atoms: _408  and  _409
REMARK  171  A    between atoms: _412  and  _414
REMARK  172  A    between atoms: _414  and  _415
REMARK  173  A    between atoms: _417  and  _419
REMARK  174  A    between atoms: _419  and  _420
REMARK  175  A    between atoms: _422  and  _424
REMARK  176  A    between atoms: _424  and  _425
REMARK  177  A    between atoms: _424  and  _427
REMARK  178  A    between atoms: _427  and  _428
REMARK  179  A    between atoms: _431  and  _433
REMARK  180  A    between atoms: _433  and  _434
REMARK  181  A    between atoms: _436  and  _438
REMARK  182  A    between atoms: _438  and  _439
REMARK  183  A    between atoms: _441  and  _443
REMARK  184  A    between atoms: _443  and  _444
REMARK  185  A    between atoms: _443  and  _446
REMARK  186  A    between atoms: _446  and  _447
REMARK  187  A    between atoms: _453  and  _455
REMARK  188  A    between atoms: _455  and  _456
REMARK  189  A    between atoms: _455  and  _458
REMARK  190  A    between atoms: _458  and  _459
REMARK  191  A    between atoms: _462  and  _464
REMARK  192  A    between atoms: _464  and  _465
REMARK  193  A    between atoms: _464  and  _467
REMARK  194  A    between atoms: _470  and  _472
REMARK  195  A    between atoms: _472  and  _473
REMARK  196  A    between atoms: _472  and  _475
REMARK  197  A    between atoms: _475  and  _476
REMARK  198  A    between atoms: _479  and  _481
REMARK  199  A    between atoms: _481  and  _482
REMARK  200  A    between atoms: _481  and  _484
REMARK  201  A    between atoms: _484  and  _485
REMARK  202  A    between atoms: _489  and  _490
REMARK  203  A    between atoms: _495  and  _497
REMARK  204  A    between atoms: _497  and  _498
REMARK  205  A    between atoms: _497  and  _500
REMARK  206  A    between atoms: _503  and  _505
REMARK  207  A    between atoms: _505  and  _506
REMARK  208  A    between atoms: _505  and  _508
REMARK  209  A    between atoms: _508  and  _509
REMARK  210  A    between atoms: _514  and  _516
REMARK  211  A    between atoms: _516  and  _517
REMARK  212  A    between atoms: _516  and  _519
REMARK  213  A    between atoms: _519  and  _520
REMARK  214  A    between atoms: _523  and  _525
REMARK  215  A    between atoms: _525  and  _526
REMARK  216  A    between atoms: _525  and  _528
REMARK  217  A    between atoms: _528  and  _529
REMARK  218  A    between atoms: _532  and  _534
REMARK  219  A    between atoms: _534  and  _535
REMARK  220  A    between atoms: _537  and  _539
REMARK  221  A    between atoms: _539  and  _540
REMARK  222  A    between atoms: _539  and  _542
REMARK  223  A    between atoms: _542  and  _543
REMARK  224  A    between atoms: _543  and  _544
REMARK  225  A    between atoms: _544  and  _545
REMARK                            x       y       z     vdW  Elec       q    Type
REMARK                         _______ _______ _______ _____ _____    ______ ____
ROOT
ATOM      1  CA  VAL A   1      -1.003  11.549  39.312  0.00  0.00    +0.133 C 
ENDROOT
BRANCH   1   2
ATOM      2  CB  VAL A   1      -2.109  12.481  38.736  0.00  0.00    +0.023 C 
ATOM      3  CG2 VAL A   1      -3.503  11.990  39.105  0.00  0.00    +0.002 C 
ATOM      4  CG1 VAL A   1      -1.960  12.619  37.239  0.00  0.00    +0.002 C 
ENDBRANCH   1   2
BRANCH   1   5
ATOM      5  N   VAL A   1      -1.162  10.149  38.891  0.00  0.00    -0.239 NA
ATOM      6  H   VAL A   1      -1.877   9.562  39.367  0.00  0.00    +0.142 HD
ENDBRANCH   1   5
BRANCH   1   7
ATOM      7  C   VAL A   1      -0.965  11.710  40.827  0.00  0.00    +0.224 C 
ATOM      8  O   VAL A   1      -1.412  10.829  41.570  0.00  0.00    -0.287 OA
ENDBRANCH   1   7
TORSDOF 3
REMARK  Name = ../refined-set-2016/2pym/2pym_pocket.pdb
REMARK  225 active torsions:
REMARK  status: ('A' for Active; 'I' for Inactive)
REMARK    1  A    between atoms: _1  and  _3
REMARK    2  A    between atoms: _3  and  _4
REMARK    3  A    between atoms: _3  and  _6
REMARK    4  A    between atoms: _6  and  _7
REMARK    5  A    between atoms: _7  and  _8
REMARK    6  A    between atoms: _8  and  _9
REMARK    7  A    between atoms: _18  and  _20
REMARK    8  A    between atoms: _20  and  _21
REMARK    9  A    between atoms: _20  and  _23
REMARK   10  A    between atoms: _23  and  _24
REMARK   11  A    between atoms: _27  and  _29
REMARK   12  A    between atoms: _29  and  _30
REMARK   13  A    between atoms: _29  and  _32
REMARK   14  A    between atoms: _32  and  _33
REMARK   15  A    between atoms: _36  and  _38
REMARK   16  A    between atoms: _38  and  _39
REMARK   17  A    between atoms: _38  and  _41
REMARK   18  A    between atoms: _41  and  _42
REMARK   19  A    between atoms: _45  and  _47
REMARK   20  A    between atoms: _47  and  _48
REMARK   21  A    between atoms: _47  and  _50
REMARK   22  A    between atoms: _50  and  _51
REMARK   23  A    between atoms: _54  and  _56
REMARK   24  A    between atoms: _56  and  _57
REMARK   25  A    between atoms: _59  and  _61
REMARK   26  A    between atoms: _61  and  _62
REMARK   27  A    between atoms: _65  and  _67
REMARK   28  A    between atoms: _67  and  _68
REMARK   29  A    between atoms: _67  and  _70
REMARK   30  A    between atoms: _70  and  _71
REMARK   31  A    between atoms: _74  and  _76
REMARK   32  A    between atoms: _76  and  _77
REMARK   33  A    between atoms: _76  and  _79
REMARK   34  A    between atoms: _79  and  _80
REMARK   35  A    between atoms: _85  and  _87
REMARK   36  A    between atoms: _87  and  _88
REMARK   37  A    between atoms: _87  and  _90
REMARK   38  A    between atoms: _90  and  _91
REMARK   39  A    between atoms: _94  and  _96
REMARK   40  A    between atoms: _96  and  _97
REMARK   41  A    between atoms: _96  and  _99
REMARK   42  A    between atoms: _102  and  _104
REMARK   43  A    between atoms: _104  and  _105
REMARK   44  A    between atoms: _104  and  _107
REMARK   45  A    between atoms: _107  and  _108
REMARK   46  A    between atoms: _108  and  _109
REMARK   47  A    between atoms: _109  and  _110
REMARK   48  A    between atoms: _110  and  _111
REMARK   49  A    between atoms: _115  and  _117
REMARK   50  A    between atoms: _117  and  _118
REMARK   51  A    between atoms: _117  and  _120
REMARK   52  A    between atoms: _120  and  _121
REMARK   53  A    between atoms: _124  and  _126
REMARK   54  A    between atoms: _126  and  _127
REMARK   55  A    between atoms: _129  and  _131
REMARK   56  A    between atoms: _131  and  _132
REMARK   57  A    between atoms: _134  and  _136
REMARK   58  A    between atoms: _136  and  _137
REMARK   59  A    between atoms: _136  and  _139
REMARK   60  A    between atoms: _139  and  _140
REMARK   61  A    between atoms: _143  and  _145
REMARK   62  A    between atoms: _145  and  _146
REMARK   63  A    between atoms: _148  and  _150
REMARK   64  A    between atoms: _150  and  _151
REMARK   65  A    between atoms: _153  and  _155
REMARK   66  A    between atoms: _155  and  _156
REMARK   67  A    between atoms: _155  and  _158
REMARK   68  A    between atoms: _158  and  _159
REMARK   69  A    between atoms: _162  and  _164
REMARK   70  A    between atoms: _164  and  _165
REMARK   71  A    between atoms: _164  and  _167
REMARK   72  A    between atoms: _167  and  _168
REMARK   73  A    between atoms: _172  and  _173
REMARK   74  A    between atoms: _178  and  _180
REMARK   75  A    between atoms: _180  and  _181
REMARK   76  A    between atoms: _180  and  _183
REMARK   77  A    between atoms: _183  and  _184
REMARK   78  A    between atoms: _188  and  _189
REMARK   79  A    between atoms: _194  and  _196
REMARK   80  A    between atoms: _196  and  _197
REMARK   81  A    between atoms: _196  and  _199
REMARK   82  A    between atoms: _202  and  _204
REMARK   83  A    between atoms: _204  and  _205
REMARK   84  A    between atoms: _204  and  _207
REMARK   85  A    between atoms: _207  and  _208
REMARK   86  A    between atoms: _213  and  _215
REMARK   87  A    between atoms: _215  and  _216
REMARK   88  A    between atoms: _215  and  _218
REMARK   89  A    between atoms: _218  and  _219
REMARK   90  A    between atoms: _222  and  _224
REMARK   91  A    between atoms: _224  and  _225
REMARK   92  A    between atoms: _224  and  _227
REMARK   93  A    between atoms: _227  and  _228
REMARK   94  A    between atoms: _231  and  _233
REMARK   95  A    between atoms: _233  and  _234
REMARK   96  A    between atoms: _236  and  _238
REMARK   97  A    between atoms: _238  and  _239
REMARK   98  A    between atoms: _238  and  _241
REMARK   99  A    between atoms: _241  and  _242
REMARK  100  A    between atoms: _242  and  _243
REMARK  101  A    between atoms: _243  and  _244
REMARK  102  A    between atoms: _253  and  _255
REMARK  103  A    between atoms: _255  and  _256
REMARK  104  A    between atoms: _255  and  _258
REMARK  105  A    between atoms: _258  and  _259
REMARK  106  A    between atoms: _262  and  _264
REMARK  107  A    between atoms: _264  and  _265
REMARK  108  A    between atoms: _264  and  _267
REMARK  109  A    between atoms: _267  and  _268
REMARK  110  A    between atoms: _268  and  _269
REMARK  111  A    between atoms: _269  and  _270
REMARK  112  A    between atoms: _279  and  _281
REMARK  113  A    between atoms: _281  and  _282
REMARK  114  A    between atoms: _281  and  _284
REMARK  115  A    between atoms: _284  and  _285
REMARK  116  A    between atoms: _288  and  _290
REMARK  117  A    between atoms: _290  and  _291
REMARK  118  A    between atoms: _290  and  _293
REMARK  119  A    between atoms: _293  and  _294
REMARK  120  A    between atoms: _297  and  _299
REMARK  121  A    between atoms: _299  and  _300
REMARK  122  A    between atoms: _299  and  _302
REMARK  123  A    between atoms: _302  and  _303
REMARK  124  A    between atoms: _306  and  _308
REMARK  125  A    between atoms: _308  and  _309
REMARK  126  A    between atoms: _308  and  _311
REMARK  127  A    between atoms: _311  and  _312
REMARK  128  A    between atoms: _315  and  _317
REMARK  129  A    between atoms: _317  and  _318
REMARK  130  A    between atoms: _317  and  _320
REMARK  131  A    between atoms: _320  and  _321
REMARK  132  A    between atoms: _324  and  _326
REMARK  133  A    between atoms: _326  and  _327
REMARK  134  A    between atoms: _329  and  _331
REMARK  135  A    between atoms: _331  and  _332
REMARK  136  A    between atoms: _335  and  _337
REMARK  137  A    between atoms: _337  and  _338
REMARK  138  A    between atoms: _337  and  _340
REMARK  139  A    between atoms: _340  and  _341
REMARK  140  A    between atoms: _344  and  _346
REMARK  141  A    between atoms: _346  and  _347
REMARK  142  A    between atoms: _346  and  _349
REMARK  143  A    between atoms: _349  and  _350
REMARK  144  A    between atoms: _355  and  _357
REMARK  145  A    between atoms: _357  and  _358
REMARK  146  A    between atoms: _357  and  _360
REMARK  147  A    between atoms: _360  and  _361
REMARK  148  A    between atoms: _364  and  _366
REMARK  149  A    between atoms: _366  and  _367
REMARK  150  A    between atoms: _366  and  _369
REMARK  151  A    between atoms: _372  and  _374
REMARK  152  A    between atoms: _374  and  _375
REMARK  153  A    between atoms: _374  and  _377
REMARK  154  A    between atoms: _377  and  _378
REMARK  155  A    between atoms: _381  and  _383
REMARK  156  A    between atoms: _383  and  _384
REMARK  157  A    between atoms: _383  and  _386
REMARK  158  A    between atoms: _386  and  _387
REMARK  159  A    between atoms: _387  and  _388
REMARK  160  A    between atoms: _388  and  _389
REMARK  161  A    between atoms: _389  and  _390
REMARK  162  A    between atoms: _394  and  _396
REMARK  163  A    between atoms: _396  and  _397
REMARK  164  A    between atoms: _396  and  _399
REMARK  165  A    between atoms: _399  and  _400
REMARK  166  A    between atoms: _400  and  _401
REMARK  167  A    between atoms: _403  and  _405
REMARK  168  A    between atoms: _405  and  _406
REMARK  169  A    between atoms: _405  and  _408
REMARK  170  A    between atoms: _408  and  _409
REMARK  171  A    between atoms: _412  and  _414
REMARK  172  A    between atoms: _414  and  _415
REMARK  173  A    between atoms: _417  and  _419
REMARK  174  A    between atoms: _419  and  _420
REMARK  175  A    between atoms: _422  and  _424
REMARK  176  A    between atoms: _424  and  _425
REMARK  177  A    between atoms: _424  and  _427
REMARK  178  A    between atoms: _427  and  _428
REMARK  179  A    between atoms: _431  and  _433
REMARK  180  A    between atoms: _433  and  _434
REMARK  181  A    between atoms: _436  and  _438
REMARK  182  A    between atoms: _438  and  _439
REMARK  183  A    between atoms: _441  and  _443
REMARK  184  A    between atoms: _443  and  _444
REMARK  185  A    between atoms: _443  and  _446
REMARK  186  A    between atoms: _446  and  _447
REMARK  187  A    between atoms: _453  and  _455
REMARK  188  A    between atoms: _455  and  _456
REMARK  189  A    between atoms: _455  and  _458
REMARK  190  A    between atoms: _458  and  _459
REMARK  191  A    between atoms: _462  and  _464
REMARK  192  A    between atoms: _464  and  _465
REMARK  193  A    between atoms: _464  and  _467
REMARK  194  A    between atoms: _470  and  _472
REMARK  195  A    between atoms: _472  and  _473
REMARK  196  A    between atoms: _472  and  _475
REMARK  197  A    between atoms: _475  and  _476
REMARK  198  A    between atoms: _479  and  _481
REMARK  199  A    between atoms: _481  and  _482
REMARK  200  A    between atoms: _481  and  _484
REMARK  201  A    between atoms: _484  and  _485
REMARK  202  A    between atoms: _489  and  _490
REMARK  203  A    between atoms: _495  and  _497
REMARK  204  A    between atoms: _497  and  _498
REMARK  205  A    between atoms: _497  and  _500
REMARK  206  A    between atoms: _503  and  _505
REMARK  207  A    between atoms: _505  and  _506
REMARK  208  A    between atoms: _505  and  _508
REMARK  209  A    between atoms: _508  and  _509
REMARK  210  A    between atoms: _514  and  _516
REMARK  211  A    between atoms: _516  and  _517
REMARK  212  A    between atoms: _516  and  _519
REMARK  213  A    between atoms: _519  and  _520
REMARK  214  A    between atoms: _523  and  _525
REMARK  215  A    between atoms: _525  and  _526
REMARK  216  A    between atoms: _525  and  _528
REMARK  217  A    between atoms: _528  and  _529
REMARK  218  A    between atoms: _532  and  _534
REMARK  219  A    between atoms: _534  and  _535
REMARK  220  A    between atoms: _537  and  _539
REMARK  221  A    between atoms: _539  and  _540
REMARK  222  A    between atoms: _539  and  _542
REMARK  223  A    between atoms: _542  and  _543
REMARK  224  A    between atoms: _543  and  _544
REMARK  225  A    between atoms: _544  and  _545
REMARK                            x       y       z     vdW  Elec       q    Type
REMARK                         _______ _______ _______ _____ _____    ______ ____
ROOT
ATOM      1  CA  LEU A   1      -3.447  16.949  40.045  0.00  0.00    +0.133 C 
ENDROOT
BRANCH   1   2
ATOM      2  N   LEU A   1      -4.116  18.227  40.279  0.00  0.00    -0.239 NA
ATOM      3  H   LEU A   1      -4.668  18.658  39.510  0.00  0.00    +0.142 HD
ENDBRANCH   1   2
BRANCH   1   4
ATOM      4  C   LEU A   1      -2.101  17.206  39.382  0.00  0.00    +0.224 C 
ATOM      5  O   LEU A   1      -1.996  18.074  38.528  0.00  0.00    -0.287 OA
ENDBRANCH   1   4
BRANCH   1   6
ATOM      6  CB  LEU A   1      -4.319  16.060  39.149  0.00  0.00    +0.025 C 
BRANCH   6   7
ATOM      7  CG  LEU A   1      -5.351  15.119  39.751  0.00  0.00    +0.002 C 
ATOM      8  CD2 LEU A   1      -5.845  15.466  41.184  0.00  0.00    +0.000 C 
ATOM      9  CD1 LEU A   1      -6.517  14.912  38.780  0.00  0.00    +0.000 C 
ENDBRANCH   6   7
ENDBRANCH   1   6
TORSDOF 4
REMARK  Name = ../refined-set-2016/2pym/2pym_pocket.pdb
REMARK  225 active torsions:
REMARK  status: ('A' for Active; 'I' for Inactive)
REMARK    1  A    between atoms: _1  and  _3
REMARK    2  A    between atoms: _3  and  _4
REMARK    3  A    between atoms: _3  and  _6
REMARK    4  A    between atoms: _6  and  _7
REMARK    5  A    between atoms: _7  and  _8
REMARK    6  A    between atoms: _8  and  _9
REMARK    7  A    between atoms: _18  and  _20
REMARK    8  A    between atoms: _20  and  _21
REMARK    9  A    between atoms: _20  and  _23
REMARK   10  A    between atoms: _23  and  _24
REMARK   11  A    between atoms: _27  and  _29
REMARK   12  A    between atoms: _29  and  _30
REMARK   13  A    between atoms: _29  and  _32
REMARK   14  A    between atoms: _32  and  _33
REMARK   15  A    between atoms: _36  and  _38
REMARK   16  A    between atoms: _38  and  _39
REMARK   17  A    between atoms: _38  and  _41
REMARK   18  A    between atoms: _41  and  _42
REMARK   19  A    between atoms: _45  and  _47
REMARK   20  A    between atoms: _47  and  _48
REMARK   21  A    between atoms: _47  and  _50
REMARK   22  A    between atoms: _50  and  _51
REMARK   23  A    between atoms: _54  and  _56
REMARK   24  A    between atoms: _56  and  _57
REMARK   25  A    between atoms: _59  and  _61
REMARK   26  A    between atoms: _61  and  _62
REMARK   27  A    between atoms: _65  and  _67
REMARK   28  A    between atoms: _67  and  _68
REMARK   29  A    between atoms: _67  and  _70
REMARK   30  A    between atoms: _70  and  _71
REMARK   31  A    between atoms: _74  and  _76
REMARK   32  A    between atoms: _76  and  _77
REMARK   33  A    between atoms: _76  and  _79
REMARK   34  A    between atoms: _79  and  _80
REMARK   35  A    between atoms: _85  and  _87
REMARK   36  A    between atoms: _87  and  _88
REMARK   37  A    between atoms: _87  and  _90
REMARK   38  A    between atoms: _90  and  _91
REMARK   39  A    between atoms: _94  and  _96
REMARK   40  A    between atoms: _96  and  _97
REMARK   41  A    between atoms: _96  and  _99
REMARK   42  A    between atoms: _102  and  _104
REMARK   43  A    between atoms: _104  and  _105
REMARK   44  A    between atoms: _104  and  _107
REMARK   45  A    between atoms: _107  and  _108
REMARK   46  A    between atoms: _108  and  _109
REMARK   47  A    between atoms: _109  and  _110
REMARK   48  A    between atoms: _110  and  _111
REMARK   49  A    between atoms: _115  and  _117
REMARK   50  A    between atoms: _117  and  _118
REMARK   51  A    between atoms: _117  and  _120
REMARK   52  A    between atoms: _120  and  _121
REMARK   53  A    between atoms: _124  and  _126
REMARK   54  A    between atoms: _126  and  _127
REMARK   55  A    between atoms: _129  and  _131
REMARK   56  A    between atoms: _131  and  _132
REMARK   57  A    between atoms: _134  and  _136
REMARK   58  A    between atoms: _136  and  _137
REMARK   59  A    between atoms: _136  and  _139
REMARK   60  A    between atoms: _139  and  _140
REMARK   61  A    between atoms: _143  and  _145
REMARK   62  A    between atoms: _145  and  _146
REMARK   63  A    between atoms: _148  and  _150
REMARK   64  A    between atoms: _150  and  _151
REMARK   65  A    between atoms: _153  and  _155
REMARK   66  A    between atoms: _155  and  _156
REMARK   67  A    between atoms: _155  and  _158
REMARK   68  A    between atoms: _158  and  _159
REMARK   69  A    between atoms: _162  and  _164
REMARK   70  A    between atoms: _164  and  _165
REMARK   71  A    between atoms: _164  and  _167
REMARK   72  A    between atoms: _167  and  _168
REMARK   73  A    between atoms: _172  and  _173
REMARK   74  A    between atoms: _178  and  _180
REMARK   75  A    between atoms: _180  and  _181
REMARK   76  A    between atoms: _180  and  _183
REMARK   77  A    between atoms: _183  and  _184
REMARK   78  A    between atoms: _188  and  _189
REMARK   79  A    between atoms: _194  and  _196
REMARK   80  A    between atoms: _196  and  _197
REMARK   81  A    between atoms: _196  and  _199
REMARK   82  A    between atoms: _202  and  _204
REMARK   83  A    between atoms: _204  and  _205
REMARK   84  A    between atoms: _204  and  _207
REMARK   85  A    between atoms: _207  and  _208
REMARK   86  A    between atoms: _213  and  _215
REMARK   87  A    between atoms: _215  and  _216
REMARK   88  A    between atoms: _215  and  _218
REMARK   89  A    between atoms: _218  and  _219
REMARK   90  A    between atoms: _222  and  _224
REMARK   91  A    between atoms: _224  and  _225
REMARK   92  A    between atoms: _224  and  _227
REMARK   93  A    between atoms: _227  and  _228
REMARK   94  A    between atoms: _231  and  _233
REMARK   95  A    between atoms: _233  and  _234
REMARK   96  A    between atoms: _236  and  _238
REMARK   97  A    between atoms: _238  and  _239
REMARK   98  A    between atoms: _238  and  _241
REMARK   99  A    between atoms: _241  and  _242
REMARK  100  A    between atoms: _242  and  _243
REMARK  101  A    between atoms: _243  and  _244
REMARK  102  A    between atoms: _253  and  _255
REMARK  103  A    between atoms: _255  and  _256
REMARK  104  A    between atoms: _255  and  _258
REMARK  105  A    between atoms: _258  and  _259
REMARK  106  A    between atoms: _262  and  _264
REMARK  107  A    between atoms: _264  and  _265
REMARK  108  A    between atoms: _264  and  _267
REMARK  109  A    between atoms: _267  and  _268
REMARK  110  A    between atoms: _268  and  _269
REMARK  111  A    between atoms: _269  and  _270
REMARK  112  A    between atoms: _279  and  _281
REMARK  113  A    between atoms: _281  and  _282
REMARK  114  A    between atoms: _281  and  _284
REMARK  115  A    between atoms: _284  and  _285
REMARK  116  A    between atoms: _288  and  _290
REMARK  117  A    between atoms: _290  and  _291
REMARK  118  A    between atoms: _290  and  _293
REMARK  119  A    between atoms: _293  and  _294
REMARK  120  A    between atoms: _297  and  _299
REMARK  121  A    between atoms: _299  and  _300
REMARK  122  A    between atoms: _299  and  _302
REMARK  123  A    between atoms: _302  and  _303
REMARK  124  A    between atoms: _306  and  _308
REMARK  125  A    between atoms: _308  and  _309
REMARK  126  A    between atoms: _308  and  _311
REMARK  127  A    between atoms: _311  and  _312
REMARK  128  A    between atoms: _315  and  _317
REMARK  129  A    between atoms: _317  and  _318
REMARK  130  A    between atoms: _317  and  _320
REMARK  131  A    between atoms: _320  and  _321
REMARK  132  A    between atoms: _324  and  _326
REMARK  133  A    between atoms: _326  and  _327
REMARK  134  A    between atoms: _329  and  _331
REMARK  135  A    between atoms: _331  and  _332
REMARK  136  A    between atoms: _335  and  _337
REMARK  137  A    between atoms: _337  and  _338
REMARK  138  A    between atoms: _337  and  _340
REMARK  139  A    between atoms: _340  and  _341
REMARK  140  A    between atoms: _344  and  _346
REMARK  141  A    between atoms: _346  and  _347
REMARK  142  A    between atoms: _346  and  _349
REMARK  143  A    between atoms: _349  and  _350
REMARK  144  A    between atoms: _355  and  _357
REMARK  145  A    between atoms: _357  and  _358
REMARK  146  A    between atoms: _357  and  _360
REMARK  147  A    between atoms: _360  and  _361
REMARK  148  A    between atoms: _364  and  _366
REMARK  149  A    between atoms: _366  and  _367
REMARK  150  A    between atoms: _366  and  _369
REMARK  151  A    between atoms: _372  and  _374
REMARK  152  A    between atoms: _374  and  _375
REMARK  153  A    between atoms: _374  and  _377
REMARK  154  A    between atoms: _377  and  _378
REMARK  155  A    between atoms: _381  and  _383
REMARK  156  A    between atoms: _383  and  _384
REMARK  157  A    between atoms: _383  and  _386
REMARK  158  A    between atoms: _386  and  _387
REMARK  159  A    between atoms: _387  and  _388
REMARK  160  A    between atoms: _388  and  _389
REMARK  161  A    between atoms: _389  and  _390
REMARK  162  A    between atoms: _394  and  _396
REMARK  163  A    between atoms: _396  and  _397
REMARK  164  A    between atoms: _396  and  _399
REMARK  165  A    between atoms: _399  and  _400
REMARK  166  A    between atoms: _400  and  _401
REMARK  167  A    between atoms: _403  and  _405
REMARK  168  A    between atoms: _405  and  _406
REMARK  169  A    between atoms: _405  and  _408
REMARK  170  A    between atoms: _408  and  _409
REMARK  171  A    between atoms: _412  and  _414
REMARK  172  A    between atoms: _414  and  _415
REMARK  173  A    between atoms: _417  and  _419
REMARK  174  A    between atoms: _419  and  _420
REMARK  175  A    between atoms: _422  and  _424
REMARK  176  A    between atoms: _424  and  _425
REMARK  177  A    between atoms: _424  and  _427
REMARK  178  A    between atoms: _427  and  _428
REMARK  179  A    between atoms: _431  and  _433
REMARK  180  A    between atoms: _433  and  _434
REMARK  181  A    between atoms: _436  and  _438
REMARK  182  A    between atoms: _438  and  _439
REMARK  183  A    between atoms: _441  and  _443
REMARK  184  A    between atoms: _443  and  _444
REMARK  185  A    between atoms: _443  and  _446
REMARK  186  A    between atoms: _446  and  _447
REMARK  187  A    between atoms: _453  and  _455
REMARK  188  A    between atoms: _455  and  _456
REMARK  189  A    between atoms: _455  and  _458
REMARK  190  A    between atoms: _458  and  _459
REMARK  191  A    between atoms: _462  and  _464
REMARK  192  A    between atoms: _464  and  _465
REMARK  193  A    between atoms: _464  and  _467
REMARK  194  A    between atoms: _470  and  _472
REMARK  195  A    between atoms: _472  and  _473
REMARK  196  A    between atoms: _472  and  _475
REMARK  197  A    between atoms: _475  and  _476
REMARK  198  A    between atoms: _479  and  _481
REMARK  199  A    between atoms: _481  and  _482
REMARK  200  A    between atoms: _481  and  _484
REMARK  201  A    between atoms: _484  and  _485
REMARK  202  A    between atoms: _489  and  _490
REMARK  203  A    between atoms: _495  and  _497
REMARK  204  A    between atoms: _497  and  _498
REMARK  205  A    between atoms: _497  and  _500
REMARK  206  A    between atoms: _503  and  _505
REMARK  207  A    between atoms: _505  and  _506
REMARK  208  A    between atoms: _505  and  _508
REMARK  209  A    between atoms: _508  and  _509
REMARK  210  A    between atoms: _514  and  _516
REMARK  211  A    between atoms: _516  and  _517
REMARK  212  A    between atoms: _516  and  _519
REMARK  213  A    between atoms: _519  and  _520
REMARK  214  A    between atoms: _523  and  _525
REMARK  215  A    between atoms: _525  and  _526
REMARK  216  A    between atoms: _525  and  _528
REMARK  217  A    between atoms: _528  and  _529
REMARK  218  A    between atoms: _532  and  _534
REMARK  219  A    between atoms: _534  and  _535
REMARK  220  A    between atoms: _537  and  _539
REMARK  221  A    between atoms: _539  and  _540
REMARK  222  A    between atoms: _539  and  _542
REMARK  223  A    between atoms: _542  and  _543
REMARK  224  A    between atoms: _543  and  _544
REMARK  225  A    between atoms: _544  and  _545
REMARK                            x       y       z     vdW  Elec       q    Type
REMARK                         _______ _______ _______ _____ _____    ______ ____
ROOT
ATOM      1  CA  ILE A   5      -4.925  21.516  31.926  0.00  0.00    +0.149 C 
ENDROOT
BRANCH   1   2
ATOM      2  C   ILE A   5      -5.680  22.176  33.062  0.00  0.00    +0.241 C 
ATOM      3  O   ILE A   5      -5.546  21.753  34.205  0.00  0.00    -0.273 OA
ATOM      4  N   ILE A   6      -6.451  23.216  32.749  0.00  0.00    -0.297 N 
ATOM      5  H   ILE A   6      -6.389  23.614  31.790  0.00  0.00    +0.150 HD
BRANCH   4   6
ATOM      6  CA  ILE A   6      -7.383  23.820  33.703  0.00  0.00    +0.149 C 
BRANCH   6   7
ATOM      7  C   ILE A   6      -8.767  23.238  33.439  0.00  0.00    +0.241 C 
ATOM      8  N   GLY A   7      -9.275  22.468  34.398  0.00  0.00    -0.295 N 
ATOM      9  H   GLY A   7      -8.764  22.364  35.298  0.00  0.00    +0.150 HD
ATOM     10  O   ILE A   6      -9.362  23.489  32.388  0.00  0.00    -0.273 OA
BRANCH   8  11
ATOM     11  CA  GLY A   7     -10.543  21.767  34.202  0.00  0.00    +0.176 C 
BRANCH  11  12
ATOM     12  C   GLY A   7     -11.697  22.511  34.825  0.00  0.00    +0.243 C 
ATOM     13  O   GLY A   7     -11.519  23.605  35.341  0.00  0.00    -0.273 OA
ATOM     14  N   ARG A   8     -12.887  21.912  34.787  0.00  0.00    -0.298 N 
ATOM     15  H   ARG A   8     -12.960  20.937  34.432  0.00  0.00    +0.150 HD
BRANCH  14  16
ATOM     16  CA  ARG A   8     -14.094  22.610  35.240  0.00  0.00    +0.137 C 
BRANCH  16  17
ATOM     17  C   ARG A   8     -14.069  22.991  36.716  0.00  0.00    +0.227 C 
ATOM     18  O   ARG A   8     -14.680  23.993  37.105  0.00  0.00    -0.286 OA
ENDBRANCH  16  17
BRANCH  16  19
ATOM     19  CB  ARG A   8     -15.335  21.796  34.941  0.00  0.00    +0.031 C 
BRANCH  19  20
ATOM     20  CG  ARG A   8     -15.525  21.501  33.444  0.00  0.00    +0.045 C 
BRANCH  20  21
ATOM     21  CD  ARG A   8     -16.867  20.817  33.194  0.00  0.00    +0.174 C 
BRANCH  21  22
ATOM     22  NE  ARG A   8     -16.895  19.466  33.744  0.00  0.00    -0.265 N 
ATOM     23  CZ  ARG A   8     -17.466  19.112  34.898  0.00  0.00    +0.342 C 
ATOM     24  NH2 ARG A   8     -18.116  20.001  35.651  0.00  0.00    -0.292 N 
ATOM     25 HH21 ARG A   8     -18.553  19.703  36.546  0.00  0.00    +0.255 HD
ATOM     26 HH22 ARG A   8     -18.185  20.992  35.343  0.00  0.00    +0.255 HD
ATOM     27  NH1 ARG A   8     -17.406  17.848  35.284  0.00  0.00    -0.292 N 
ATOM     28 HH11 ARG A   8     -17.846  17.557  36.180  0.00  0.00    +0.255 HD
ATOM     29 HH12 ARG A   8     -16.919  17.146  34.691  0.00  0.00    +0.255 HD
ATOM     30  HE  ARG A   8     -16.432  18.716  33.191  0.00  0.00    +0.259 HD
ENDBRANCH  21  22
ENDBRANCH  20  21
ENDBRANCH  19  20
ENDBRANCH  16  19
ENDBRANCH  14  16
ENDBRANCH  11  12
ENDBRANCH   8  11
ENDBRANCH   6   7
BRANCH   6  31
ATOM     31  CB  ILE A   6      -7.447  25.377  33.577  0.00  0.00    +0.027 C 
ATOM     32  CG2 ILE A   6      -8.437  25.976  34.619  0.00  0.00    +0.002 C 
BRANCH  31  33
ATOM     33  CG1 ILE A   6      -6.042  26.003  33.684  0.00  0.00    +0.002 C 
ATOM     34  CD1 ILE A   6      -5.180  25.517  34.875  0.00  0.00    +0.000 C 
ENDBRANCH  31  33
ENDBRANCH   6  31
ENDBRANCH   4   6
ENDBRANCH   1   2
BRANCH   1  36
ATOM     35  C   ASN A   4      -2.606  22.168  31.401  0.00  0.00    +0.241 C 
ATOM     36  N   ILE A   5      -3.475  21.515  32.175  0.00  0.00    -0.297 N 
ATOM     37  H   ILE A   5      -3.111  20.982  32.990  0.00  0.00    +0.150 HD
ATOM     38  O   ASN A   4      -2.931  22.919  30.465  0.00  0.00    -0.273 OA
BRANCH  35  39
ATOM     39  CA  ASN A   4      -1.133  21.931  31.716  0.00  0.00    +0.158 C 
BRANCH  39  42
ATOM     40  C   VAL A   3      -0.682  20.338  29.948  0.00  0.00    +0.241 C 
ATOM     41  O   VAL A   3      -1.352  19.473  30.510  0.00  0.00    -0.273 OA
ATOM     42  N   ASN A   4      -0.434  21.524  30.502  0.00  0.00    -0.297 N 
ATOM     43  H   ASN A   4       0.262  22.163  30.067  0.00  0.00    +0.150 HD
BRANCH  40  44
ATOM     44  CA  VAL A   3      -0.123  20.072  28.560  0.00  0.00    +0.149 C 
BRANCH  44  46
ATOM     45  C   PRO A   2       1.574  18.381  27.995  0.00  0.00    +0.241 C 
ATOM     46  N   VAL A   3       0.409  18.703  28.552  0.00  0.00    -0.297 N 
ATOM     47  H   VAL A   3      -0.150  17.951  29.002  0.00  0.00    +0.150 HD
ATOM     48  O   PRO A   2       2.306  19.200  27.433  0.00  0.00    -0.273 OA
BRANCH  45  55
ATOM     49  C   THR A   1       1.353  16.175  30.289  0.00  0.00    +0.244 C 
ATOM     50  O   THR A   1       2.260  16.849  30.780  0.00  0.00    -0.273 OA
ATOM     51  N   PRO A   2       1.136  16.114  28.960  0.00  0.00    -0.272 N 
ATOM     52  CD  PRO A   2       0.139  15.320  28.219  0.00  0.00    +0.094 C 
ATOM     53  CG  PRO A   2       0.336  15.759  26.792  0.00  0.00    +0.024 C 
ATOM     54  CB  PRO A   2       1.722  16.247  26.704  0.00  0.00    +0.031 C 
ATOM     55  CA  PRO A   2       1.977  16.902  28.055  0.00  0.00    +0.152 C 
BRANCH  49  56
ATOM     56  CA  THR A   1       0.443  15.342  31.200  0.00  0.00    +0.172 C 
BRANCH  56  57
ATOM     57  N   THR A   1       1.266  14.759  32.261  0.00  0.00    -0.236 NA
ATOM     58  H   THR A   1       1.395  15.282  33.151  0.00  0.00    +0.142 HD
ENDBRANCH  56  57
BRANCH  56  59
ATOM     59  CB  THR A   1      -0.750  16.191  31.759  0.00  0.00    +0.135 C 
ATOM     60  CG2 THR A   1      -0.275  17.260  32.722  0.00  0.00    +0.034 C 
BRANCH  59  61
ATOM     61  OG1 THR A   1      -1.462  16.813  30.678  0.00  0.00    -0.383 OA
ATOM     62  HG1 THR A   1      -0.847  17.406  30.177  0.00  0.00    +0.210 HD
ENDBRANCH  59  61
ENDBRANCH  56  59
ENDBRANCH  49  56
ENDBRANCH  45  55
ENDBRANCH  44  46
BRANCH  44  63
ATOM     63  CB  VAL A   3      -1.269  20.231  27.500  0.00  0.00    +0.027 C 
ATOM     64  CG2 VAL A   3      -1.819  21.648  27.508  0.00  0.00    +0.002 C 
ATOM     65  CG1 VAL A   3      -0.773  19.880  26.092  0.00  0.00    +0.002 C 
ENDBRANCH  44  63
ENDBRANCH  40  44
ENDBRANCH  39  42
BRANCH  39  66
ATOM     66  CB  ASN A   4      -0.523  23.194  32.311  0.00  0.00    +0.114 C 
BRANCH  66  67
ATOM     67  CG  ASN A   4       0.912  22.980  32.770  0.00  0.00    +0.222 C 
ATOM     68  OD1 ASN A   4       1.244  21.948  33.360  0.00  0.00    -0.275 OA
ATOM     69  ND2 ASN A   4       1.775  23.940  32.461  0.00  0.00    -0.329 N 
ATOM     70 HD21 ASN A   4       2.778  23.840  32.717  0.00  0.00    +0.145 HD
ATOM     71 HD22 ASN A   4       1.448  24.792  31.963  0.00  0.00    +0.145 HD
ENDBRANCH  66  67
ENDBRANCH  39  66
ENDBRANCH  35  39
ENDBRANCH   1  36
BRANCH   1  72
ATOM     72  CB  ILE A   5      -5.458  20.056  31.804  0.00  0.00    +0.027 C 
ATOM     73  CG2 ILE A   5      -7.016  20.013  31.763  0.00  0.00    +0.002 C 
BRANCH  72  74
ATOM     74  CG1 ILE A   5      -4.874  19.355  30.578  0.00  0.00    +0.002 C 
ATOM     75  CD1 ILE A   5      -5.110  20.064  29.294  0.00  0.00    +0.000 C 
ENDBRANCH  72  74
ENDBRANCH   1  72
TORSDOF 28
REMARK  Name = ../refined-set-2016/2pym/2pym_pocket.pdb
REMARK  225 active torsions:
REMARK  status: ('A' for Active; 'I' for Inactive)
REMARK    1  A    between atoms: _1  and  _3
REMARK    2  A    between atoms: _3  and  _4
REMARK    3  A    between atoms: _3  and  _6
REMARK    4  A    between atoms: _6  and  _7
REMARK    5  A    between atoms: _7  and  _8
REMARK    6  A    between atoms: _8  and  _9
REMARK    7  A    between atoms: _18  and  _20
REMARK    8  A    between atoms: _20  and  _21
REMARK    9  A    between atoms: _20  and  _23
REMARK   10  A    between atoms: _23  and  _24
REMARK   11  A    between atoms: _27  and  _29
REMARK   12  A    between atoms: _29  and  _30
REMARK   13  A    between atoms: _29  and  _32
REMARK   14  A    between atoms: _32  and  _33
REMARK   15  A    between atoms: _36  and  _38
REMARK   16  A    between atoms: _38  and  _39
REMARK   17  A    between atoms: _38  and  _41
REMARK   18  A    between atoms: _41  and  _42
REMARK   19  A    between atoms: _45  and  _47
REMARK   20  A    between atoms: _47  and  _48
REMARK   21  A    between atoms: _47  and  _50
REMARK   22  A    between atoms: _50  and  _51
REMARK   23  A    between atoms: _54  and  _56
REMARK   24  A    between atoms: _56  and  _57
REMARK   25  A    between atoms: _59  and  _61
REMARK   26  A    between atoms: _61  and  _62
REMARK   27  A    between atoms: _65  and  _67
REMARK   28  A    between atoms: _67  and  _68
REMARK   29  A    between atoms: _67  and  _70
REMARK   30  A    between atoms: _70  and  _71
REMARK   31  A    between atoms: _74  and  _76
REMARK   32  A    between atoms: _76  and  _77
REMARK   33  A    between atoms: _76  and  _79
REMARK   34  A    between atoms: _79  and  _80
REMARK   35  A    between atoms: _85  and  _87
REMARK   36  A    between atoms: _87  and  _88
REMARK   37  A    between atoms: _87  and  _90
REMARK   38  A    between atoms: _90  and  _91
REMARK   39  A    between atoms: _94  and  _96
REMARK   40  A    between atoms: _96  and  _97
REMARK   41  A    between atoms: _96  and  _99
REMARK   42  A    between atoms: _102  and  _104
REMARK   43  A    between atoms: _104  and  _105
REMARK   44  A    between atoms: _104  and  _107
REMARK   45  A    between atoms: _107  and  _108
REMARK   46  A    between atoms: _108  and  _109
REMARK   47  A    between atoms: _109  and  _110
REMARK   48  A    between atoms: _110  and  _111
REMARK   49  A    between atoms: _115  and  _117
REMARK   50  A    between atoms: _117  and  _118
REMARK   51  A    between atoms: _117  and  _120
REMARK   52  A    between atoms: _120  and  _121
REMARK   53  A    between atoms: _124  and  _126
REMARK   54  A    between atoms: _126  and  _127
REMARK   55  A    between atoms: _129  and  _131
REMARK   56  A    between atoms: _131  and  _132
REMARK   57  A    between atoms: _134  and  _136
REMARK   58  A    between atoms: _136  and  _137
REMARK   59  A    between atoms: _136  and  _139
REMARK   60  A    between atoms: _139  and  _140
REMARK   61  A    between atoms: _143  and  _145
REMARK   62  A    between atoms: _145  and  _146
REMARK   63  A    between atoms: _148  and  _150
REMARK   64  A    between atoms: _150  and  _151
REMARK   65  A    between atoms: _153  and  _155
REMARK   66  A    between atoms: _155  and  _156
REMARK   67  A    between atoms: _155  and  _158
REMARK   68  A    between atoms: _158  and  _159
REMARK   69  A    between atoms: _162  and  _164
REMARK   70  A    between atoms: _164  and  _165
REMARK   71  A    between atoms: _164  and  _167
REMARK   72  A    between atoms: _167  and  _168
REMARK   73  A    between atoms: _172  and  _173
REMARK   74  A    between atoms: _178  and  _180
REMARK   75  A    between atoms: _180  and  _181
REMARK   76  A    between atoms: _180  and  _183
REMARK   77  A    between atoms: _183  and  _184
REMARK   78  A    between atoms: _188  and  _189
REMARK   79  A    between atoms: _194  and  _196
REMARK   80  A    between atoms: _196  and  _197
REMARK   81  A    between atoms: _196  and  _199
REMARK   82  A    between atoms: _202  and  _204
REMARK   83  A    between atoms: _204  and  _205
REMARK   84  A    between atoms: _204  and  _207
REMARK   85  A    between atoms: _207  and  _208
REMARK   86  A    between atoms: _213  and  _215
REMARK   87  A    between atoms: _215  and  _216
REMARK   88  A    between atoms: _215  and  _218
REMARK   89  A    between atoms: _218  and  _219
REMARK   90  A    between atoms: _222  and  _224
REMARK   91  A    between atoms: _224  and  _225
REMARK   92  A    between atoms: _224  and  _227
REMARK   93  A    between atoms: _227  and  _228
REMARK   94  A    between atoms: _231  and  _233
REMARK   95  A    between atoms: _233  and  _234
REMARK   96  A    between atoms: _236  and  _238
REMARK   97  A    between atoms: _238  and  _239
REMARK   98  A    between atoms: _238  and  _241
REMARK   99  A    between atoms: _241  and  _242
REMARK  100  A    between atoms: _242  and  _243
REMARK  101  A    between atoms: _243  and  _244
REMARK  102  A    between atoms: _253  and  _255
REMARK  103  A    between atoms: _255  and  _256
REMARK  104  A    between atoms: _255  and  _258
REMARK  105  A    between atoms: _258  and  _259
REMARK  106  A    between atoms: _262  and  _264
REMARK  107  A    between atoms: _264  and  _265
REMARK  108  A    between atoms: _264  and  _267
REMARK  109  A    between atoms: _267  and  _268
REMARK  110  A    between atoms: _268  and  _269
REMARK  111  A    between atoms: _269  and  _270
REMARK  112  A    between atoms: _279  and  _281
REMARK  113  A    between atoms: _281  and  _282
REMARK  114  A    between atoms: _281  and  _284
REMARK  115  A    between atoms: _284  and  _285
REMARK  116  A    between atoms: _288  and  _290
REMARK  117  A    between atoms: _290  and  _291
REMARK  118  A    between atoms: _290  and  _293
REMARK  119  A    between atoms: _293  and  _294
REMARK  120  A    between atoms: _297  and  _299
REMARK  121  A    between atoms: _299  and  _300
REMARK  122  A    between atoms: _299  and  _302
REMARK  123  A    between atoms: _302  and  _303
REMARK  124  A    between atoms: _306  and  _308
REMARK  125  A    between atoms: _308  and  _309
REMARK  126  A    between atoms: _308  and  _311
REMARK  127  A    between atoms: _311  and  _312
REMARK  128  A    between atoms: _315  and  _317
REMARK  129  A    between atoms: _317  and  _318
REMARK  130  A    between atoms: _317  and  _320
REMARK  131  A    between atoms: _320  and  _321
REMARK  132  A    between atoms: _324  and  _326
REMARK  133  A    between atoms: _326  and  _327
REMARK  134  A    between atoms: _329  and  _331
REMARK  135  A    between atoms: _331  and  _332
REMARK  136  A    between atoms: _335  and  _337
REMARK  137  A    between atoms: _337  and  _338
REMARK  138  A    between atoms: _337  and  _340
REMARK  139  A    between atoms: _340  and  _341
REMARK  140  A    between atoms: _344  and  _346
REMARK  141  A    between atoms: _346  and  _347
REMARK  142  A    between atoms: _346  and  _349
REMARK  143  A    between atoms: _349  and  _350
REMARK  144  A    between atoms: _355  and  _357
REMARK  145  A    between atoms: _357  and  _358
REMARK  146  A    between atoms: _357  and  _360
REMARK  147  A    between atoms: _360  and  _361
REMARK  148  A    between atoms: _364  and  _366
REMARK  149  A    between atoms: _366  and  _367
REMARK  150  A    between atoms: _366  and  _369
REMARK  151  A    between atoms: _372  and  _374
REMARK  152  A    between atoms: _374  and  _375
REMARK  153  A    between atoms: _374  and  _377
REMARK  154  A    between atoms: _377  and  _378
REMARK  155  A    between atoms: _381  and  _383
REMARK  156  A    between atoms: _383  and  _384
REMARK  157  A    between atoms: _383  and  _386
REMARK  158  A    between atoms: _386  and  _387
REMARK  159  A    between atoms: _387  and  _388
REMARK  160  A    between atoms: _388  and  _389
REMARK  161  A    between atoms: _389  and  _390
REMARK  162  A    between atoms: _394  and  _396
REMARK  163  A    between atoms: _396  and  _397
REMARK  164  A    between atoms: _396  and  _399
REMARK  165  A    between atoms: _399  and  _400
REMARK  166  A    between atoms: _400  and  _401
REMARK  167  A    between atoms: _403  and  _405
REMARK  168  A    between atoms: _405  and  _406
REMARK  169  A    between atoms: _405  and  _408
REMARK  170  A    between atoms: _408  and  _409
REMARK  171  A    between atoms: _412  and  _414
REMARK  172  A    between atoms: _414  and  _415
REMARK  173  A    between atoms: _417  and  _419
REMARK  174  A    between atoms: _419  and  _420
REMARK  175  A    between atoms: _422  and  _424
REMARK  176  A    between atoms: _424  and  _425
REMARK  177  A    between atoms: _424  and  _427
REMARK  178  A    between atoms: _427  and  _428
REMARK  179  A    between atoms: _431  and  _433
REMARK  180  A    between atoms: _433  and  _434
REMARK  181  A    between atoms: _436  and  _438
REMARK  182  A    between atoms: _438  and  _439
REMARK  183  A    between atoms: _441  and  _443
REMARK  184  A    between atoms: _443  and  _444
REMARK  185  A    between atoms: _443  and  _446
REMARK  186  A    between atoms: _446  and  _447
REMARK  187  A    between atoms: _453  and  _455
REMARK  188  A    between atoms: _455  and  _456
REMARK  189  A    between atoms: _455  and  _458
REMARK  190  A    between atoms: _458  and  _459
REMARK  191  A    between atoms: _462  and  _464
REMARK  192  A    between atoms: _464  and  _465
REMARK  193  A    between atoms: _464  and  _467
REMARK  194  A    between atoms: _470  and  _472
REMARK  195  A    between atoms: _472  and  _473
REMARK  196  A    between atoms: _472  and  _475
REMARK  197  A    between atoms: _475  and  _476
REMARK  198  A    between atoms: _479  and  _481
REMARK  199  A    between atoms: _481  and  _482
REMARK  200  A    between atoms: _481  and  _484
REMARK  201  A    between atoms: _484  and  _485
REMARK  202  A    between atoms: _489  and  _490
REMARK  203  A    between atoms: _495  and  _497
REMARK  204  A    between atoms: _497  and  _498
REMARK  205  A    between atoms: _497  and  _500
REMARK  206  A    between atoms: _503  and  _505
REMARK  207  A    between atoms: _505  and  _506
REMARK  208  A    between atoms: _505  and  _508
REMARK  209  A    between atoms: _508  and  _509
REMARK  210  A    between atoms: _514  and  _516
REMARK  211  A    between atoms: _516  and  _517
REMARK  212  A    between atoms: _516  and  _519
REMARK  213  A    between atoms: _519  and  _520
REMARK  214  A    between atoms: _523  and  _525
REMARK  215  A    between atoms: _525  and  _526
REMARK  216  A    between atoms: _525  and  _528
REMARK  217  A    between atoms: _528  and  _529
REMARK  218  A    between atoms: _532  and  _534
REMARK  219  A    between atoms: _534  and  _535
REMARK  220  A    between atoms: _537  and  _539
REMARK  221  A    between atoms: _539  and  _540
REMARK  222  A    between atoms: _539  and  _542
REMARK  223  A    between atoms: _542  and  _543
REMARK  224  A    between atoms: _543  and  _544
REMARK  225  A    between atoms: _544  and  _545
REMARK                            x       y       z     vdW  Elec       q    Type
REMARK                         _______ _______ _______ _____ _____    ______ ____
ROOT
ATOM      1  O   HOH     1     -12.099  14.466  32.433  0.00  0.00    +0.000 OA
ENDROOT
TORSDOF 0
REMARK  Name = ../refined-set-2016/2pym/2pym_pocket.pdb
REMARK  225 active torsions:
REMARK  status: ('A' for Active; 'I' for Inactive)
REMARK    1  A    between atoms: _1  and  _3
REMARK    2  A    between atoms: _3  and  _4
REMARK    3  A    between atoms: _3  and  _6
REMARK    4  A    between atoms: _6  and  _7
REMARK    5  A    between atoms: _7  and  _8
REMARK    6  A    between atoms: _8  and  _9
REMARK    7  A    between atoms: _18  and  _20
REMARK    8  A    between atoms: _20  and  _21
REMARK    9  A    between atoms: _20  and  _23
REMARK   10  A    between atoms: _23  and  _24
REMARK   11  A    between atoms: _27  and  _29
REMARK   12  A    between atoms: _29  and  _30
REMARK   13  A    between atoms: _29  and  _32
REMARK   14  A    between atoms: _32  and  _33
REMARK   15  A    between atoms: _36  and  _38
REMARK   16  A    between atoms: _38  and  _39
REMARK   17  A    between atoms: _38  and  _41
REMARK   18  A    between atoms: _41  and  _42
REMARK   19  A    between atoms: _45  and  _47
REMARK   20  A    between atoms: _47  and  _48
REMARK   21  A    between atoms: _47  and  _50
REMARK   22  A    between atoms: _50  and  _51
REMARK   23  A    between atoms: _54  and  _56
REMARK   24  A    between atoms: _56  and  _57
REMARK   25  A    between atoms: _59  and  _61
REMARK   26  A    between atoms: _61  and  _62
REMARK   27  A    between atoms: _65  and  _67
REMARK   28  A    between atoms: _67  and  _68
REMARK   29  A    between atoms: _67  and  _70
REMARK   30  A    between atoms: _70  and  _71
REMARK   31  A    between atoms: _74  and  _76
REMARK   32  A    between atoms: _76  and  _77
REMARK   33  A    between atoms: _76  and  _79
REMARK   34  A    between atoms: _79  and  _80
REMARK   35  A    between atoms: _85  and  _87
REMARK   36  A    between atoms: _87  and  _88
REMARK   37  A    between atoms: _87  and  _90
REMARK   38  A    between atoms: _90  and  _91
REMARK   39  A    between atoms: _94  and  _96
REMARK   40  A    between atoms: _96  and  _97
REMARK   41  A    between atoms: _96  and  _99
REMARK   42  A    between atoms: _102  and  _104
REMARK   43  A    between atoms: _104  and  _105
REMARK   44  A    between atoms: _104  and  _107
REMARK   45  A    between atoms: _107  and  _108
REMARK   46  A    between atoms: _108  and  _109
REMARK   47  A    between atoms: _109  and  _110
REMARK   48  A    between atoms: _110  and  _111
REMARK   49  A    between atoms: _115  and  _117
REMARK   50  A    between atoms: _117  and  _118
REMARK   51  A    between atoms: _117  and  _120
REMARK   52  A    between atoms: _120  and  _121
REMARK   53  A    between atoms: _124  and  _126
REMARK   54  A    between atoms: _126  and  _127
REMARK   55  A    between atoms: _129  and  _131
REMARK   56  A    between atoms: _131  and  _132
REMARK   57  A    between atoms: _134  and  _136
REMARK   58  A    between atoms: _136  and  _137
REMARK   59  A    between atoms: _136  and  _139
REMARK   60  A    between atoms: _139  and  _140
REMARK   61  A    between atoms: _143  and  _145
REMARK   62  A    between atoms: _145  and  _146
REMARK   63  A    between atoms: _148  and  _150
REMARK   64  A    between atoms: _150  and  _151
REMARK   65  A    between atoms: _153  and  _155
REMARK   66  A    between atoms: _155  and  _156
REMARK   67  A    between atoms: _155  and  _158
REMARK   68  A    between atoms: _158  and  _159
REMARK   69  A    between atoms: _162  and  _164
REMARK   70  A    between atoms: _164  and  _165
REMARK   71  A    between atoms: _164  and  _167
REMARK   72  A    between atoms: _167  and  _168
REMARK   73  A    between atoms: _172  and  _173
REMARK   74  A    between atoms: _178  and  _180
REMARK   75  A    between atoms: _180  and  _181
REMARK   76  A    between atoms: _180  and  _183
REMARK   77  A    between atoms: _183  and  _184
REMARK   78  A    between atoms: _188  and  _189
REMARK   79  A    between atoms: _194  and  _196
REMARK   80  A    between atoms: _196  and  _197
REMARK   81  A    between atoms: _196  and  _199
REMARK   82  A    between atoms: _202  and  _204
REMARK   83  A    between atoms: _204  and  _205
REMARK   84  A    between atoms: _204  and  _207
REMARK   85  A    between atoms: _207  and  _208
REMARK   86  A    between atoms: _213  and  _215
REMARK   87  A    between atoms: _215  and  _216
REMARK   88  A    between atoms: _215  and  _218
REMARK   89  A    between atoms: _218  and  _219
REMARK   90  A    between atoms: _222  and  _224
REMARK   91  A    between atoms: _224  and  _225
REMARK   92  A    between atoms: _224  and  _227
REMARK   93  A    between atoms: _227  and  _228
REMARK   94  A    between atoms: _231  and  _233
REMARK   95  A    between atoms: _233  and  _234
REMARK   96  A    between atoms: _236  and  _238
REMARK   97  A    between atoms: _238  and  _239
REMARK   98  A    between atoms: _238  and  _241
REMARK   99  A    between atoms: _241  and  _242
REMARK  100  A    between atoms: _242  and  _243
REMARK  101  A    between atoms: _243  and  _244
REMARK  102  A    between atoms: _253  and  _255
REMARK  103  A    between atoms: _255  and  _256
REMARK  104  A    between atoms: _255  and  _258
REMARK  105  A    between atoms: _258  and  _259
REMARK  106  A    between atoms: _262  and  _264
REMARK  107  A    between atoms: _264  and  _265
REMARK  108  A    between atoms: _264  and  _267
REMARK  109  A    between atoms: _267  and  _268
REMARK  110  A    between atoms: _268  and  _269
REMARK  111  A    between atoms: _269  and  _270
REMARK  112  A    between atoms: _279  and  _281
REMARK  113  A    between atoms: _281  and  _282
REMARK  114  A    between atoms: _281  and  _284
REMARK  115  A    between atoms: _284  and  _285
REMARK  116  A    between atoms: _288  and  _290
REMARK  117  A    between atoms: _290  and  _291
REMARK  118  A    between atoms: _290  and  _293
REMARK  119  A    between atoms: _293  and  _294
REMARK  120  A    between atoms: _297  and  _299
REMARK  121  A    between atoms: _299  and  _300
REMARK  122  A    between atoms: _299  and  _302
REMARK  123  A    between atoms: _302  and  _303
REMARK  124  A    between atoms: _306  and  _308
REMARK  125  A    between atoms: _308  and  _309
REMARK  126  A    between atoms: _308  and  _311
REMARK  127  A    between atoms: _311  and  _312
REMARK  128  A    between atoms: _315  and  _317
REMARK  129  A    between atoms: _317  and  _318
REMARK  130  A    between atoms: _317  and  _320
REMARK  131  A    between atoms: _320  and  _321
REMARK  132  A    between atoms: _324  and  _326
REMARK  133  A    between atoms: _326  and  _327
REMARK  134  A    between atoms: _329  and  _331
REMARK  135  A    between atoms: _331  and  _332
REMARK  136  A    between atoms: _335  and  _337
REMARK  137  A    between atoms: _337  and  _338
REMARK  138  A    between atoms: _337  and  _340
REMARK  139  A    between atoms: _340  and  _341
REMARK  140  A    between atoms: _344  and  _346
REMARK  141  A    between atoms: _346  and  _347
REMARK  142  A    between atoms: _346  and  _349
REMARK  143  A    between atoms: _349  and  _350
REMARK  144  A    between atoms: _355  and  _357
REMARK  145  A    between atoms: _357  and  _358
REMARK  146  A    between atoms: _357  and  _360
REMARK  147  A    between atoms: _360  and  _361
REMARK  148  A    between atoms: _364  and  _366
REMARK  149  A    between atoms: _366  and  _367
REMARK  150  A    between atoms: _366  and  _369
REMARK  151  A    between atoms: _372  and  _374
REMARK  152  A    between atoms: _374  and  _375
REMARK  153  A    between atoms: _374  and  _377
REMARK  154  A    between atoms: _377  and  _378
REMARK  155  A    between atoms: _381  and  _383
REMARK  156  A    between atoms: _383  and  _384
REMARK  157  A    between atoms: _383  and  _386
REMARK  158  A    between atoms: _386  and  _387
REMARK  159  A    between atoms: _387  and  _388
REMARK  160  A    between atoms: _388  and  _389
REMARK  161  A    between atoms: _389  and  _390
REMARK  162  A    between atoms: _394  and  _396
REMARK  163  A    between atoms: _396  and  _397
REMARK  164  A    between atoms: _396  and  _399
REMARK  165  A    between atoms: _399  and  _400
REMARK  166  A    between atoms: _400  and  _401
REMARK  167  A    between atoms: _403  and  _405
REMARK  168  A    between atoms: _405  and  _406
REMARK  169  A    between atoms: _405  and  _408
REMARK  170  A    between atoms: _408  and  _409
REMARK  171  A    between atoms: _412  and  _414
REMARK  172  A    between atoms: _414  and  _415
REMARK  173  A    between atoms: _417  and  _419
REMARK  174  A    between atoms: _419  and  _420
REMARK  175  A    between atoms: _422  and  _424
REMARK  176  A    between atoms: _424  and  _425
REMARK  177  A    between atoms: _424  and  _427
REMARK  178  A    between atoms: _427  and  _428
REMARK  179  A    between atoms: _431  and  _433
REMARK  180  A    between atoms: _433  and  _434
REMARK  181  A    between atoms: _436  and  _438
REMARK  182  A    between atoms: _438  and  _439
REMARK  183  A    between atoms: _441  and  _443
REMARK  184  A    between atoms: _443  and  _444
REMARK  185  A    between atoms: _443  and  _446
REMARK  186  A    between atoms: _446  and  _447
REMARK  187  A    between atoms: _453  and  _455
REMARK  188  A    between atoms: _455  and  _456
REMARK  189  A    between atoms: _455  and  _458
REMARK  190  A    between atoms: _458  and  _459
REMARK  191  A    between atoms: _462  and  _464
REMARK  192  A    between atoms: _464  and  _465
REMARK  193  A    between atoms: _464  and  _467
REMARK  194  A    between atoms: _470  and  _472
REMARK  195  A    between atoms: _472  and  _473
REMARK  196  A    between atoms: _472  and  _475
REMARK  197  A    between atoms: _475  and  _476
REMARK  198  A    between atoms: _479  and  _481
REMARK  199  A    between atoms: _481  and  _482
REMARK  200  A    between atoms: _481  and  _484
REMARK  201  A    between atoms: _484  and  _485
REMARK  202  A    between atoms: _489  and  _490
REMARK  203  A    between atoms: _495  and  _497
REMARK  204  A    between atoms: _497  and  _498
REMARK  205  A    between atoms: _497  and  _500
REMARK  206  A    between atoms: _503  and  _505
REMARK  207  A    between atoms: _505  and  _506
REMARK  208  A    between atoms: _505  and  _508
REMARK  209  A    between atoms: _508  and  _509
REMARK  210  A    between atoms: _514  and  _516
REMARK  211  A    between atoms: _516  and  _517
REMARK  212  A    between atoms: _516  and  _519
REMARK  213  A    between atoms: _519  and  _520
REMARK  214  A    between atoms: _523  and  _525
REMARK  215  A    between atoms: _525  and  _526
REMARK  216  A    between atoms: _525  and  _528
REMARK  217  A    between atoms: _528  and  _529
REMARK  218  A    between atoms: _532  and  _534
REMARK  219  A    between atoms: _534  and  _535
REMARK  220  A    between atoms: _537  and  _539
REMARK  221  A    between atoms: _539  and  _540
REMARK  222  A    between atoms: _539  and  _542
REMARK  223  A    between atoms: _542  and  _543
REMARK  224  A    between atoms: _543  and  _544
REMARK  225  A    between atoms: _544  and  _545
REMARK                            x       y       z     vdW  Elec       q    Type
REMARK                         _______ _______ _______ _____ _____    ______ ____
ROOT
ATOM      1  O   HOH     1      -6.527  17.698  21.316  0.00  0.00    +0.000 OA
ENDROOT
TORSDOF 0
REMARK  Name = ../refined-set-2016/2pym/2pym_pocket.pdb
REMARK  225 active torsions:
REMARK  status: ('A' for Active; 'I' for Inactive)
REMARK    1  A    between atoms: _1  and  _3
REMARK    2  A    between atoms: _3  and  _4
REMARK    3  A    between atoms: _3  and  _6
REMARK    4  A    between atoms: _6  and  _7
REMARK    5  A    between atoms: _7  and  _8
REMARK    6  A    between atoms: _8  and  _9
REMARK    7  A    between atoms: _18  and  _20
REMARK    8  A    between atoms: _20  and  _21
REMARK    9  A    between atoms: _20  and  _23
REMARK   10  A    between atoms: _23  and  _24
REMARK   11  A    between atoms: _27  and  _29
REMARK   12  A    between atoms: _29  and  _30
REMARK   13  A    between atoms: _29  and  _32
REMARK   14  A    between atoms: _32  and  _33
REMARK   15  A    between atoms: _36  and  _38
REMARK   16  A    between atoms: _38  and  _39
REMARK   17  A    between atoms: _38  and  _41
REMARK   18  A    between atoms: _41  and  _42
REMARK   19  A    between atoms: _45  and  _47
REMARK   20  A    between atoms: _47  and  _48
REMARK   21  A    between atoms: _47  and  _50
REMARK   22  A    between atoms: _50  and  _51
REMARK   23  A    between atoms: _54  and  _56
REMARK   24  A    between atoms: _56  and  _57
REMARK   25  A    between atoms: _59  and  _61
REMARK   26  A    between atoms: _61  and  _62
REMARK   27  A    between atoms: _65  and  _67
REMARK   28  A    between atoms: _67  and  _68
REMARK   29  A    between atoms: _67  and  _70
REMARK   30  A    between atoms: _70  and  _71
REMARK   31  A    between atoms: _74  and  _76
REMARK   32  A    between atoms: _76  and  _77
REMARK   33  A    between atoms: _76  and  _79
REMARK   34  A    between atoms: _79  and  _80
REMARK   35  A    between atoms: _85  and  _87
REMARK   36  A    between atoms: _87  and  _88
REMARK   37  A    between atoms: _87  and  _90
REMARK   38  A    between atoms: _90  and  _91
REMARK   39  A    between atoms: _94  and  _96
REMARK   40  A    between atoms: _96  and  _97
REMARK   41  A    between atoms: _96  and  _99
REMARK   42  A    between atoms: _102  and  _104
REMARK   43  A    between atoms: _104  and  _105
REMARK   44  A    between atoms: _104  and  _107
REMARK   45  A    between atoms: _107  and  _108
REMARK   46  A    between atoms: _108  and  _109
REMARK   47  A    between atoms: _109  and  _110
REMARK   48  A    between atoms: _110  and  _111
REMARK   49  A    between atoms: _115  and  _117
REMARK   50  A    between atoms: _117  and  _118
REMARK   51  A    between atoms: _117  and  _120
REMARK   52  A    between atoms: _120  and  _121
REMARK   53  A    between atoms: _124  and  _126
REMARK   54  A    between atoms: _126  and  _127
REMARK   55  A    between atoms: _129  and  _131
REMARK   56  A    between atoms: _131  and  _132
REMARK   57  A    between atoms: _134  and  _136
REMARK   58  A    between atoms: _136  and  _137
REMARK   59  A    between atoms: _136  and  _139
REMARK   60  A    between atoms: _139  and  _140
REMARK   61  A    between atoms: _143  and  _145
REMARK   62  A    between atoms: _145  and  _146
REMARK   63  A    between atoms: _148  and  _150
REMARK   64  A    between atoms: _150  and  _151
REMARK   65  A    between atoms: _153  and  _155
REMARK   66  A    between atoms: _155  and  _156
REMARK   67  A    between atoms: _155  and  _158
REMARK   68  A    between atoms: _158  and  _159
REMARK   69  A    between atoms: _162  and  _164
REMARK   70  A    between atoms: _164  and  _165
REMARK   71  A    between atoms: _164  and  _167
REMARK   72  A    between atoms: _167  and  _168
REMARK   73  A    between atoms: _172  and  _173
REMARK   74  A    between atoms: _178  and  _180
REMARK   75  A    between atoms: _180  and  _181
REMARK   76  A    between atoms: _180  and  _183
REMARK   77  A    between atoms: _183  and  _184
REMARK   78  A    between atoms: _188  and  _189
REMARK   79  A    between atoms: _194  and  _196
REMARK   80  A    between atoms: _196  and  _197
REMARK   81  A    between atoms: _196  and  _199
REMARK   82  A    between atoms: _202  and  _204
REMARK   83  A    between atoms: _204  and  _205
REMARK   84  A    between atoms: _204  and  _207
REMARK   85  A    between atoms: _207  and  _208
REMARK   86  A    between atoms: _213  and  _215
REMARK   87  A    between atoms: _215  and  _216
REMARK   88  A    between atoms: _215  and  _218
REMARK   89  A    between atoms: _218  and  _219
REMARK   90  A    between atoms: _222  and  _224
REMARK   91  A    between atoms: _224  and  _225
REMARK   92  A    between atoms: _224  and  _227
REMARK   93  A    between atoms: _227  and  _228
REMARK   94  A    between atoms: _231  and  _233
REMARK   95  A    between atoms: _233  and  _234
REMARK   96  A    between atoms: _236  and  _238
REMARK   97  A    between atoms: _238  and  _239
REMARK   98  A    between atoms: _238  and  _241
REMARK   99  A    between atoms: _241  and  _242
REMARK  100  A    between atoms: _242  and  _243
REMARK  101  A    between atoms: _243  and  _244
REMARK  102  A    between atoms: _253  and  _255
REMARK  103  A    between atoms: _255  and  _256
REMARK  104  A    between atoms: _255  and  _258
REMARK  105  A    between atoms: _258  and  _259
REMARK  106  A    between atoms: _262  and  _264
REMARK  107  A    between atoms: _264  and  _265
REMARK  108  A    between atoms: _264  and  _267
REMARK  109  A    between atoms: _267  and  _268
REMARK  110  A    between atoms: _268  and  _269
REMARK  111  A    between atoms: _269  and  _270
REMARK  112  A    between atoms: _279  and  _281
REMARK  113  A    between atoms: _281  and  _282
REMARK  114  A    between atoms: _281  and  _284
REMARK  115  A    between atoms: _284  and  _285
REMARK  116  A    between atoms: _288  and  _290
REMARK  117  A    between atoms: _290  and  _291
REMARK  118  A    between atoms: _290  and  _293
REMARK  119  A    between atoms: _293  and  _294
REMARK  120  A    between atoms: _297  and  _299
REMARK  121  A    between atoms: _299  and  _300
REMARK  122  A    between atoms: _299  and  _302
REMARK  123  A    between atoms: _302  and  _303
REMARK  124  A    between atoms: _306  and  _308
REMARK  125  A    between atoms: _308  and  _309
REMARK  126  A    between atoms: _308  and  _311
REMARK  127  A    between atoms: _311  and  _312
REMARK  128  A    between atoms: _315  and  _317
REMARK  129  A    between atoms: _317  and  _318
REMARK  130  A    between atoms: _317  and  _320
REMARK  131  A    between atoms: _320  and  _321
REMARK  132  A    between atoms: _324  and  _326
REMARK  133  A    between atoms: _326  and  _327
REMARK  134  A    between atoms: _329  and  _331
REMARK  135  A    between atoms: _331  and  _332
REMARK  136  A    between atoms: _335  and  _337
REMARK  137  A    between atoms: _337  and  _338
REMARK  138  A    between atoms: _337  and  _340
REMARK  139  A    between atoms: _340  and  _341
REMARK  140  A    between atoms: _344  and  _346
REMARK  141  A    between atoms: _346  and  _347
REMARK  142  A    between atoms: _346  and  _349
REMARK  143  A    between atoms: _349  and  _350
REMARK  144  A    between atoms: _355  and  _357
REMARK  145  A    between atoms: _357  and  _358
REMARK  146  A    between atoms: _357  and  _360
REMARK  147  A    between atoms: _360  and  _361
REMARK  148  A    between atoms: _364  and  _366
REMARK  149  A    between atoms: _366  and  _367
REMARK  150  A    between atoms: _366  and  _369
REMARK  151  A    between atoms: _372  and  _374
REMARK  152  A    between atoms: _374  and  _375
REMARK  153  A    between atoms: _374  and  _377
REMARK  154  A    between atoms: _377  and  _378
REMARK  155  A    between atoms: _381  and  _383
REMARK  156  A    between atoms: _383  and  _384
REMARK  157  A    between atoms: _383  and  _386
REMARK  158  A    between atoms: _386  and  _387
REMARK  159  A    between atoms: _387  and  _388
REMARK  160  A    between atoms: _388  and  _389
REMARK  161  A    between atoms: _389  and  _390
REMARK  162  A    between atoms: _394  and  _396
REMARK  163  A    between atoms: _396  and  _397
REMARK  164  A    between atoms: _396  and  _399
REMARK  165  A    between atoms: _399  and  _400
REMARK  166  A    between atoms: _400  and  _401
REMARK  167  A    between atoms: _403  and  _405
REMARK  168  A    between atoms: _405  and  _406
REMARK  169  A    between atoms: _405  and  _408
REMARK  170  A    between atoms: _408  and  _409
REMARK  171  A    between atoms: _412  and  _414
REMARK  172  A    between atoms: _414  and  _415
REMARK  173  A    between atoms: _417  and  _419
REMARK  174  A    between atoms: _419  and  _420
REMARK  175  A    between atoms: _422  and  _424
REMARK  176  A    between atoms: _424  and  _425
REMARK  177  A    between atoms: _424  and  _427
REMARK  178  A    between atoms: _427  and  _428
REMARK  179  A    between atoms: _431  and  _433
REMARK  180  A    between atoms: _433  and  _434
REMARK  181  A    between atoms: _436  and  _438
REMARK  182  A    between atoms: _438  and  _439
REMARK  183  A    between atoms: _441  and  _443
REMARK  184  A    between atoms: _443  and  _444
REMARK  185  A    between atoms: _443  and  _446
REMARK  186  A    between atoms: _446  and  _447
REMARK  187  A    between atoms: _453  and  _455
REMARK  188  A    between atoms: _455  and  _456
REMARK  189  A    between atoms: _455  and  _458
REMARK  190  A    between atoms: _458  and  _459
REMARK  191  A    between atoms: _462  and  _464
REMARK  192  A    between atoms: _464  and  _465
REMARK  193  A    between atoms: _464  and  _467
REMARK  194  A    between atoms: _470  and  _472
REMARK  195  A    between atoms: _472  and  _473
REMARK  196  A    between atoms: _472  and  _475
REMARK  197  A    between atoms: _475  and  _476
REMARK  198  A    between atoms: _479  and  _481
REMARK  199  A    between atoms: _481  and  _482
REMARK  200  A    between atoms: _481  and  _484
REMARK  201  A    between atoms: _484  and  _485
REMARK  202  A    between atoms: _489  and  _490
REMARK  203  A    between atoms: _495  and  _497
REMARK  204  A    between atoms: _497  and  _498
REMARK  205  A    between atoms: _497  and  _500
REMARK  206  A    between atoms: _503  and  _505
REMARK  207  A    between atoms: _505  and  _506
REMARK  208  A    between atoms: _505  and  _508
REMARK  209  A    between atoms: _508  and  _509
REMARK  210  A    between atoms: _514  and  _516
REMARK  211  A    between atoms: _516  and  _517
REMARK  212  A    between atoms: _516  and  _519
REMARK  213  A    between atoms: _519  and  _520
REMARK  214  A    between atoms: _523  and  _525
REMARK  215  A    between atoms: _525  and  _526
REMARK  216  A    between atoms: _525  and  _528
REMARK  217  A    between atoms: _528  and  _529
REMARK  218  A    between atoms: _532  and  _534
REMARK  219  A    between atoms: _534  and  _535
REMARK  220  A    between atoms: _537  and  _539
REMARK  221  A    between atoms: _539  and  _540
REMARK  222  A    between atoms: _539  and  _542
REMARK  223  A    between atoms: _542  and  _543
REMARK  224  A    between atoms: _543  and  _544
REMARK  225  A    between atoms: _544  and  _545
REMARK                            x       y       z     vdW  Elec       q    Type
REMARK                         _______ _______ _______ _____ _____    ______ ____
ROOT
ATOM      1  O   HOH     1      -7.427  12.870  26.874  0.00  0.00    +0.000 OA
ENDROOT
TORSDOF 0
REMARK  Name = ../refined-set-2016/2pym/2pym_pocket.pdb
REMARK  225 active torsions:
REMARK  status: ('A' for Active; 'I' for Inactive)
REMARK    1  A    between atoms: _1  and  _3
REMARK    2  A    between atoms: _3  and  _4
REMARK    3  A    between atoms: _3  and  _6
REMARK    4  A    between atoms: _6  and  _7
REMARK    5  A    between atoms: _7  and  _8
REMARK    6  A    between atoms: _8  and  _9
REMARK    7  A    between atoms: _18  and  _20
REMARK    8  A    between atoms: _20  and  _21
REMARK    9  A    between atoms: _20  and  _23
REMARK   10  A    between atoms: _23  and  _24
REMARK   11  A    between atoms: _27  and  _29
REMARK   12  A    between atoms: _29  and  _30
REMARK   13  A    between atoms: _29  and  _32
REMARK   14  A    between atoms: _32  and  _33
REMARK   15  A    between atoms: _36  and  _38
REMARK   16  A    between atoms: _38  and  _39
REMARK   17  A    between atoms: _38  and  _41
REMARK   18  A    between atoms: _41  and  _42
REMARK   19  A    between atoms: _45  and  _47
REMARK   20  A    between atoms: _47  and  _48
REMARK   21  A    between atoms: _47  and  _50
REMARK   22  A    between atoms: _50  and  _51
REMARK   23  A    between atoms: _54  and  _56
REMARK   24  A    between atoms: _56  and  _57
REMARK   25  A    between atoms: _59  and  _61
REMARK   26  A    between atoms: _61  and  _62
REMARK   27  A    between atoms: _65  and  _67
REMARK   28  A    between atoms: _67  and  _68
REMARK   29  A    between atoms: _67  and  _70
REMARK   30  A    between atoms: _70  and  _71
REMARK   31  A    between atoms: _74  and  _76
REMARK   32  A    between atoms: _76  and  _77
REMARK   33  A    between atoms: _76  and  _79
REMARK   34  A    between atoms: _79  and  _80
REMARK   35  A    between atoms: _85  and  _87
REMARK   36  A    between atoms: _87  and  _88
REMARK   37  A    between atoms: _87  and  _90
REMARK   38  A    between atoms: _90  and  _91
REMARK   39  A    between atoms: _94  and  _96
REMARK   40  A    between atoms: _96  and  _97
REMARK   41  A    between atoms: _96  and  _99
REMARK   42  A    between atoms: _102  and  _104
REMARK   43  A    between atoms: _104  and  _105
REMARK   44  A    between atoms: _104  and  _107
REMARK   45  A    between atoms: _107  and  _108
REMARK   46  A    between atoms: _108  and  _109
REMARK   47  A    between atoms: _109  and  _110
REMARK   48  A    between atoms: _110  and  _111
REMARK   49  A    between atoms: _115  and  _117
REMARK   50  A    between atoms: _117  and  _118
REMARK   51  A    between atoms: _117  and  _120
REMARK   52  A    between atoms: _120  and  _121
REMARK   53  A    between atoms: _124  and  _126
REMARK   54  A    between atoms: _126  and  _127
REMARK   55  A    between atoms: _129  and  _131
REMARK   56  A    between atoms: _131  and  _132
REMARK   57  A    between atoms: _134  and  _136
REMARK   58  A    between atoms: _136  and  _137
REMARK   59  A    between atoms: _136  and  _139
REMARK   60  A    between atoms: _139  and  _140
REMARK   61  A    between atoms: _143  and  _145
REMARK   62  A    between atoms: _145  and  _146
REMARK   63  A    between atoms: _148  and  _150
REMARK   64  A    between atoms: _150  and  _151
REMARK   65  A    between atoms: _153  and  _155
REMARK   66  A    between atoms: _155  and  _156
REMARK   67  A    between atoms: _155  and  _158
REMARK   68  A    between atoms: _158  and  _159
REMARK   69  A    between atoms: _162  and  _164
REMARK   70  A    between atoms: _164  and  _165
REMARK   71  A    between atoms: _164  and  _167
REMARK   72  A    between atoms: _167  and  _168
REMARK   73  A    between atoms: _172  and  _173
REMARK   74  A    between atoms: _178  and  _180
REMARK   75  A    between atoms: _180  and  _181
REMARK   76  A    between atoms: _180  and  _183
REMARK   77  A    between atoms: _183  and  _184
REMARK   78  A    between atoms: _188  and  _189
REMARK   79  A    between atoms: _194  and  _196
REMARK   80  A    between atoms: _196  and  _197
REMARK   81  A    between atoms: _196  and  _199
REMARK   82  A    between atoms: _202  and  _204
REMARK   83  A    between atoms: _204  and  _205
REMARK   84  A    between atoms: _204  and  _207
REMARK   85  A    between atoms: _207  and  _208
REMARK   86  A    between atoms: _213  and  _215
REMARK   87  A    between atoms: _215  and  _216
REMARK   88  A    between atoms: _215  and  _218
REMARK   89  A    between atoms: _218  and  _219
REMARK   90  A    between atoms: _222  and  _224
REMARK   91  A    between atoms: _224  and  _225
REMARK   92  A    between atoms: _224  and  _227
REMARK   93  A    between atoms: _227  and  _228
REMARK   94  A    between atoms: _231  and  _233
REMARK   95  A    between atoms: _233  and  _234
REMARK   96  A    between atoms: _236  and  _238
REMARK   97  A    between atoms: _238  and  _239
REMARK   98  A    between atoms: _238  and  _241
REMARK   99  A    between atoms: _241  and  _242
REMARK  100  A    between atoms: _242  and  _243
REMARK  101  A    between atoms: _243  and  _244
REMARK  102  A    between atoms: _253  and  _255
REMARK  103  A    between atoms: _255  and  _256
REMARK  104  A    between atoms: _255  and  _258
REMARK  105  A    between atoms: _258  and  _259
REMARK  106  A    between atoms: _262  and  _264
REMARK  107  A    between atoms: _264  and  _265
REMARK  108  A    between atoms: _264  and  _267
REMARK  109  A    between atoms: _267  and  _268
REMARK  110  A    between atoms: _268  and  _269
REMARK  111  A    between atoms: _269  and  _270
REMARK  112  A    between atoms: _279  and  _281
REMARK  113  A    between atoms: _281  and  _282
REMARK  114  A    between atoms: _281  and  _284
REMARK  115  A    between atoms: _284  and  _285
REMARK  116  A    between atoms: _288  and  _290
REMARK  117  A    between atoms: _290  and  _291
REMARK  118  A    between atoms: _290  and  _293
REMARK  119  A    between atoms: _293  and  _294
REMARK  120  A    between atoms: _297  and  _299
REMARK  121  A    between atoms: _299  and  _300
REMARK  122  A    between atoms: _299  and  _302
REMARK  123  A    between atoms: _302  and  _303
REMARK  124  A    between atoms: _306  and  _308
REMARK  125  A    between atoms: _308  and  _309
REMARK  126  A    between atoms: _308  and  _311
REMARK  127  A    between atoms: _311  and  _312
REMARK  128  A    between atoms: _315  and  _317
REMARK  129  A    between atoms: _317  and  _318
REMARK  130  A    between atoms: _317  and  _320
REMARK  131  A    between atoms: _320  and  _321
REMARK  132  A    between atoms: _324  and  _326
REMARK  133  A    between atoms: _326  and  _327
REMARK  134  A    between atoms: _329  and  _331
REMARK  135  A    between atoms: _331  and  _332
REMARK  136  A    between atoms: _335  and  _337
REMARK  137  A    between atoms: _337  and  _338
REMARK  138  A    between atoms: _337  and  _340
REMARK  139  A    between atoms: _340  and  _341
REMARK  140  A    between atoms: _344  and  _346
REMARK  141  A    between atoms: _346  and  _347
REMARK  142  A    between atoms: _346  and  _349
REMARK  143  A    between atoms: _349  and  _350
REMARK  144  A    between atoms: _355  and  _357
REMARK  145  A    between atoms: _357  and  _358
REMARK  146  A    between atoms: _357  and  _360
REMARK  147  A    between atoms: _360  and  _361
REMARK  148  A    between atoms: _364  and  _366
REMARK  149  A    between atoms: _366  and  _367
REMARK  150  A    between atoms: _366  and  _369
REMARK  151  A    between atoms: _372  and  _374
REMARK  152  A    between atoms: _374  and  _375
REMARK  153  A    between atoms: _374  and  _377
REMARK  154  A    between atoms: _377  and  _378
REMARK  155  A    between atoms: _381  and  _383
REMARK  156  A    between atoms: _383  and  _384
REMARK  157  A    between atoms: _383  and  _386
REMARK  158  A    between atoms: _386  and  _387
REMARK  159  A    between atoms: _387  and  _388
REMARK  160  A    between atoms: _388  and  _389
REMARK  161  A    between atoms: _389  and  _390
REMARK  162  A    between atoms: _394  and  _396
REMARK  163  A    between atoms: _396  and  _397
REMARK  164  A    between atoms: _396  and  _399
REMARK  165  A    between atoms: _399  and  _400
REMARK  166  A    between atoms: _400  and  _401
REMARK  167  A    between atoms: _403  and  _405
REMARK  168  A    between atoms: _405  and  _406
REMARK  169  A    between atoms: _405  and  _408
REMARK  170  A    between atoms: _408  and  _409
REMARK  171  A    between atoms: _412  and  _414
REMARK  172  A    between atoms: _414  and  _415
REMARK  173  A    between atoms: _417  and  _419
REMARK  174  A    between atoms: _419  and  _420
REMARK  175  A    between atoms: _422  and  _424
REMARK  176  A    between atoms: _424  and  _425
REMARK  177  A    between atoms: _424  and  _427
REMARK  178  A    between atoms: _427  and  _428
REMARK  179  A    between atoms: _431  and  _433
REMARK  180  A    between atoms: _433  and  _434
REMARK  181  A    between atoms: _436  and  _438
REMARK  182  A    between atoms: _438  and  _439
REMARK  183  A    between atoms: _441  and  _443
REMARK  184  A    between atoms: _443  and  _444
REMARK  185  A    between atoms: _443  and  _446
REMARK  186  A    between atoms: _446  and  _447
REMARK  187  A    between atoms: _453  and  _455
REMARK  188  A    between atoms: _455  and  _456
REMARK  189  A    between atoms: _455  and  _458
REMARK  190  A    between atoms: _458  and  _459
REMARK  191  A    between atoms: _462  and  _464
REMARK  192  A    between atoms: _464  and  _465
REMARK  193  A    between atoms: _464  and  _467
REMARK  194  A    between atoms: _470  and  _472
REMARK  195  A    between atoms: _472  and  _473
REMARK  196  A    between atoms: _472  and  _475
REMARK  197  A    between atoms: _475  and  _476
REMARK  198  A    between atoms: _479  and  _481
REMARK  199  A    between atoms: _481  and  _482
REMARK  200  A    between atoms: _481  and  _484
REMARK  201  A    between atoms: _484  and  _485
REMARK  202  A    between atoms: _489  and  _490
REMARK  203  A    between atoms: _495  and  _497
REMARK  204  A    between atoms: _497  and  _498
REMARK  205  A    between atoms: _497  and  _500
REMARK  206  A    between atoms: _503  and  _505
REMARK  207  A    between atoms: _505  and  _506
REMARK  208  A    between atoms: _505  and  _508
REMARK  209  A    between atoms: _508  and  _509
REMARK  210  A    between atoms: _514  and  _516
REMARK  211  A    between atoms: _516  and  _517
REMARK  212  A    between atoms: _516  and  _519
REMARK  213  A    between atoms: _519  and  _520
REMARK  214  A    between atoms: _523  and  _525
REMARK  215  A    between atoms: _525  and  _526
REMARK  216  A    between atoms: _525  and  _528
REMARK  217  A    between atoms: _528  and  _529
REMARK  218  A    between atoms: _532  and  _534
REMARK  219  A    between atoms: _534  and  _535
REMARK  220  A    between atoms: _537  and  _539
REMARK  221  A    between atoms: _539  and  _540
REMARK  222  A    between atoms: _539  and  _542
REMARK  223  A    between atoms: _542  and  _543
REMARK  224  A    between atoms: _543  and  _544
REMARK  225  A    between atoms: _544  and  _545
REMARK                            x       y       z     vdW  Elec       q    Type
REMARK                         _______ _______ _______ _____ _____    ______ ____
ROOT
ATOM      1  O   HOH     1      -7.788  23.110  22.425  0.00  0.00    +0.000 OA
ENDROOT
TORSDOF 0
REMARK  Name = ../refined-set-2016/2pym/2pym_pocket.pdb
REMARK  225 active torsions:
REMARK  status: ('A' for Active; 'I' for Inactive)
REMARK    1  A    between atoms: _1  and  _3
REMARK    2  A    between atoms: _3  and  _4
REMARK    3  A    between atoms: _3  and  _6
REMARK    4  A    between atoms: _6  and  _7
REMARK    5  A    between atoms: _7  and  _8
REMARK    6  A    between atoms: _8  and  _9
REMARK    7  A    between atoms: _18  and  _20
REMARK    8  A    between atoms: _20  and  _21
REMARK    9  A    between atoms: _20  and  _23
REMARK   10  A    between atoms: _23  and  _24
REMARK   11  A    between atoms: _27  and  _29
REMARK   12  A    between atoms: _29  and  _30
REMARK   13  A    between atoms: _29  and  _32
REMARK   14  A    between atoms: _32  and  _33
REMARK   15  A    between atoms: _36  and  _38
REMARK   16  A    between atoms: _38  and  _39
REMARK   17  A    between atoms: _38  and  _41
REMARK   18  A    between atoms: _41  and  _42
REMARK   19  A    between atoms: _45  and  _47
REMARK   20  A    between atoms: _47  and  _48
REMARK   21  A    between atoms: _47  and  _50
REMARK   22  A    between atoms: _50  and  _51
REMARK   23  A    between atoms: _54  and  _56
REMARK   24  A    between atoms: _56  and  _57
REMARK   25  A    between atoms: _59  and  _61
REMARK   26  A    between atoms: _61  and  _62
REMARK   27  A    between atoms: _65  and  _67
REMARK   28  A    between atoms: _67  and  _68
REMARK   29  A    between atoms: _67  and  _70
REMARK   30  A    between atoms: _70  and  _71
REMARK   31  A    between atoms: _74  and  _76
REMARK   32  A    between atoms: _76  and  _77
REMARK   33  A    between atoms: _76  and  _79
REMARK   34  A    between atoms: _79  and  _80
REMARK   35  A    between atoms: _85  and  _87
REMARK   36  A    between atoms: _87  and  _88
REMARK   37  A    between atoms: _87  and  _90
REMARK   38  A    between atoms: _90  and  _91
REMARK   39  A    between atoms: _94  and  _96
REMARK   40  A    between atoms: _96  and  _97
REMARK   41  A    between atoms: _96  and  _99
REMARK   42  A    between atoms: _102  and  _104
REMARK   43  A    between atoms: _104  and  _105
REMARK   44  A    between atoms: _104  and  _107
REMARK   45  A    between atoms: _107  and  _108
REMARK   46  A    between atoms: _108  and  _109
REMARK   47  A    between atoms: _109  and  _110
REMARK   48  A    between atoms: _110  and  _111
REMARK   49  A    between atoms: _115  and  _117
REMARK   50  A    between atoms: _117  and  _118
REMARK   51  A    between atoms: _117  and  _120
REMARK   52  A    between atoms: _120  and  _121
REMARK   53  A    between atoms: _124  and  _126
REMARK   54  A    between atoms: _126  and  _127
REMARK   55  A    between atoms: _129  and  _131
REMARK   56  A    between atoms: _131  and  _132
REMARK   57  A    between atoms: _134  and  _136
REMARK   58  A    between atoms: _136  and  _137
REMARK   59  A    between atoms: _136  and  _139
REMARK   60  A    between atoms: _139  and  _140
REMARK   61  A    between atoms: _143  and  _145
REMARK   62  A    between atoms: _145  and  _146
REMARK   63  A    between atoms: _148  and  _150
REMARK   64  A    between atoms: _150  and  _151
REMARK   65  A    between atoms: _153  and  _155
REMARK   66  A    between atoms: _155  and  _156
REMARK   67  A    between atoms: _155  and  _158
REMARK   68  A    between atoms: _158  and  _159
REMARK   69  A    between atoms: _162  and  _164
REMARK   70  A    between atoms: _164  and  _165
REMARK   71  A    between atoms: _164  and  _167
REMARK   72  A    between atoms: _167  and  _168
REMARK   73  A    between atoms: _172  and  _173
REMARK   74  A    between atoms: _178  and  _180
REMARK   75  A    between atoms: _180  and  _181
REMARK   76  A    between atoms: _180  and  _183
REMARK   77  A    between atoms: _183  and  _184
REMARK   78  A    between atoms: _188  and  _189
REMARK   79  A    between atoms: _194  and  _196
REMARK   80  A    between atoms: _196  and  _197
REMARK   81  A    between atoms: _196  and  _199
REMARK   82  A    between atoms: _202  and  _204
REMARK   83  A    between atoms: _204  and  _205
REMARK   84  A    between atoms: _204  and  _207
REMARK   85  A    between atoms: _207  and  _208
REMARK   86  A    between atoms: _213  and  _215
REMARK   87  A    between atoms: _215  and  _216
REMARK   88  A    between atoms: _215  and  _218
REMARK   89  A    between atoms: _218  and  _219
REMARK   90  A    between atoms: _222  and  _224
REMARK   91  A    between atoms: _224  and  _225
REMARK   92  A    between atoms: _224  and  _227
REMARK   93  A    between atoms: _227  and  _228
REMARK   94  A    between atoms: _231  and  _233
REMARK   95  A    between atoms: _233  and  _234
REMARK   96  A    between atoms: _236  and  _238
REMARK   97  A    between atoms: _238  and  _239
REMARK   98  A    between atoms: _238  and  _241
REMARK   99  A    between atoms: _241  and  _242
REMARK  100  A    between atoms: _242  and  _243
REMARK  101  A    between atoms: _243  and  _244
REMARK  102  A    between atoms: _253  and  _255
REMARK  103  A    between atoms: _255  and  _256
REMARK  104  A    between atoms: _255  and  _258
REMARK  105  A    between atoms: _258  and  _259
REMARK  106  A    between atoms: _262  and  _264
REMARK  107  A    between atoms: _264  and  _265
REMARK  108  A    between atoms: _264  and  _267
REMARK  109  A    between atoms: _267  and  _268
REMARK  110  A    between atoms: _268  and  _269
REMARK  111  A    between atoms: _269  and  _270
REMARK  112  A    between atoms: _279  and  _281
REMARK  113  A    between atoms: _281  and  _282
REMARK  114  A    between atoms: _281  and  _284
REMARK  115  A    between atoms: _284  and  _285
REMARK  116  A    between atoms: _288  and  _290
REMARK  117  A    between atoms: _290  and  _291
REMARK  118  A    between atoms: _290  and  _293
REMARK  119  A    between atoms: _293  and  _294
REMARK  120  A    between atoms: _297  and  _299
REMARK  121  A    between atoms: _299  and  _300
REMARK  122  A    between atoms: _299  and  _302
REMARK  123  A    between atoms: _302  and  _303
REMARK  124  A    between atoms: _306  and  _308
REMARK  125  A    between atoms: _308  and  _309
REMARK  126  A    between atoms: _308  and  _311
REMARK  127  A    between atoms: _311  and  _312
REMARK  128  A    between atoms: _315  and  _317
REMARK  129  A    between atoms: _317  and  _318
REMARK  130  A    between atoms: _317  and  _320
REMARK  131  A    between atoms: _320  and  _321
REMARK  132  A    between atoms: _324  and  _326
REMARK  133  A    between atoms: _326  and  _327
REMARK  134  A    between atoms: _329  and  _331
REMARK  135  A    between atoms: _331  and  _332
REMARK  136  A    between atoms: _335  and  _337
REMARK  137  A    between atoms: _337  and  _338
REMARK  138  A    between atoms: _337  and  _340
REMARK  139  A    between atoms: _340  and  _341
REMARK  140  A    between atoms: _344  and  _346
REMARK  141  A    between atoms: _346  and  _347
REMARK  142  A    between atoms: _346  and  _349
REMARK  143  A    between atoms: _349  and  _350
REMARK  144  A    between atoms: _355  and  _357
REMARK  145  A    between atoms: _357  and  _358
REMARK  146  A    between atoms: _357  and  _360
REMARK  147  A    between atoms: _360  and  _361
REMARK  148  A    between atoms: _364  and  _366
REMARK  149  A    between atoms: _366  and  _367
REMARK  150  A    between atoms: _366  and  _369
REMARK  151  A    between atoms: _372  and  _374
REMARK  152  A    between atoms: _374  and  _375
REMARK  153  A    between atoms: _374  and  _377
REMARK  154  A    between atoms: _377  and  _378
REMARK  155  A    between atoms: _381  and  _383
REMARK  156  A    between atoms: _383  and  _384
REMARK  157  A    between atoms: _383  and  _386
REMARK  158  A    between atoms: _386  and  _387
REMARK  159  A    between atoms: _387  and  _388
REMARK  160  A    between atoms: _388  and  _389
REMARK  161  A    between atoms: _389  and  _390
REMARK  162  A    between atoms: _394  and  _396
REMARK  163  A    between atoms: _396  and  _397
REMARK  164  A    between atoms: _396  and  _399
REMARK  165  A    between atoms: _399  and  _400
REMARK  166  A    between atoms: _400  and  _401
REMARK  167  A    between atoms: _403  and  _405
REMARK  168  A    between atoms: _405  and  _406
REMARK  169  A    between atoms: _405  and  _408
REMARK  170  A    between atoms: _408  and  _409
REMARK  171  A    between atoms: _412  and  _414
REMARK  172  A    between atoms: _414  and  _415
REMARK  173  A    between atoms: _417  and  _419
REMARK  174  A    between atoms: _419  and  _420
REMARK  175  A    between atoms: _422  and  _424
REMARK  176  A    between atoms: _424  and  _425
REMARK  177  A    between atoms: _424  and  _427
REMARK  178  A    between atoms: _427  and  _428
REMARK  179  A    between atoms: _431  and  _433
REMARK  180  A    between atoms: _433  and  _434
REMARK  181  A    between atoms: _436  and  _438
REMARK  182  A    between atoms: _438  and  _439
REMARK  183  A    between atoms: _441  and  _443
REMARK  184  A    between atoms: _443  and  _444
REMARK  185  A    between atoms: _443  and  _446
REMARK  186  A    between atoms: _446  and  _447
REMARK  187  A    between atoms: _453  and  _455
REMARK  188  A    between atoms: _455  and  _456
REMARK  189  A    between atoms: _455  and  _458
REMARK  190  A    between atoms: _458  and  _459
REMARK  191  A    between atoms: _462  and  _464
REMARK  192  A    between atoms: _464  and  _465
REMARK  193  A    between atoms: _464  and  _467
REMARK  194  A    between atoms: _470  and  _472
REMARK  195  A    between atoms: _472  and  _473
REMARK  196  A    between atoms: _472  and  _475
REMARK  197  A    between atoms: _475  and  _476
REMARK  198  A    between atoms: _479  and  _481
REMARK  199  A    between atoms: _481  and  _482
REMARK  200  A    between atoms: _481  and  _484
REMARK  201  A    between atoms: _484  and  _485
REMARK  202  A    between atoms: _489  and  _490
REMARK  203  A    between atoms: _495  and  _497
REMARK  204  A    between atoms: _497  and  _498
REMARK  205  A    between atoms: _497  and  _500
REMARK  206  A    between atoms: _503  and  _505
REMARK  207  A    between atoms: _505  and  _506
REMARK  208  A    between atoms: _505  and  _508
REMARK  209  A    between atoms: _508  and  _509
REMARK  210  A    between atoms: _514  and  _516
REMARK  211  A    between atoms: _516  and  _517
REMARK  212  A    between atoms: _516  and  _519
REMARK  213  A    between atoms: _519  and  _520
REMARK  214  A    between atoms: _523  and  _525
REMARK  215  A    between atoms: _525  and  _526
REMARK  216  A    between atoms: _525  and  _528
REMARK  217  A    between atoms: _528  and  _529
REMARK  218  A    between atoms: _532  and  _534
REMARK  219  A    between atoms: _534  and  _535
REMARK  220  A    between atoms: _537  and  _539
REMARK  221  A    between atoms: _539  and  _540
REMARK  222  A    between atoms: _539  and  _542
REMARK  223  A    between atoms: _542  and  _543
REMARK  224  A    between atoms: _543  and  _544
REMARK  225  A    between atoms: _544  and  _545
REMARK                            x       y       z     vdW  Elec       q    Type
REMARK                         _______ _______ _______ _____ _____    ______ ____
ROOT
ATOM      1  O   HOH     1     -12.366  16.458  13.680  0.00  0.00    +0.000 OA
ENDROOT
TORSDOF 0
REMARK  Name = ../refined-set-2016/2pym/2pym_pocket.pdb
REMARK  225 active torsions:
REMARK  status: ('A' for Active; 'I' for Inactive)
REMARK    1  A    between atoms: _1  and  _3
REMARK    2  A    between atoms: _3  and  _4
REMARK    3  A    between atoms: _3  and  _6
REMARK    4  A    between atoms: _6  and  _7
REMARK    5  A    between atoms: _7  and  _8
REMARK    6  A    between atoms: _8  and  _9
REMARK    7  A    between atoms: _18  and  _20
REMARK    8  A    between atoms: _20  and  _21
REMARK    9  A    between atoms: _20  and  _23
REMARK   10  A    between atoms: _23  and  _24
REMARK   11  A    between atoms: _27  and  _29
REMARK   12  A    between atoms: _29  and  _30
REMARK   13  A    between atoms: _29  and  _32
REMARK   14  A    between atoms: _32  and  _33
REMARK   15  A    between atoms: _36  and  _38
REMARK   16  A    between atoms: _38  and  _39
REMARK   17  A    between atoms: _38  and  _41
REMARK   18  A    between atoms: _41  and  _42
REMARK   19  A    between atoms: _45  and  _47
REMARK   20  A    between atoms: _47  and  _48
REMARK   21  A    between atoms: _47  and  _50
REMARK   22  A    between atoms: _50  and  _51
REMARK   23  A    between atoms: _54  and  _56
REMARK   24  A    between atoms: _56  and  _57
REMARK   25  A    between atoms: _59  and  _61
REMARK   26  A    between atoms: _61  and  _62
REMARK   27  A    between atoms: _65  and  _67
REMARK   28  A    between atoms: _67  and  _68
REMARK   29  A    between atoms: _67  and  _70
REMARK   30  A    between atoms: _70  and  _71
REMARK   31  A    between atoms: _74  and  _76
REMARK   32  A    between atoms: _76  and  _77
REMARK   33  A    between atoms: _76  and  _79
REMARK   34  A    between atoms: _79  and  _80
REMARK   35  A    between atoms: _85  and  _87
REMARK   36  A    between atoms: _87  and  _88
REMARK   37  A    between atoms: _87  and  _90
REMARK   38  A    between atoms: _90  and  _91
REMARK   39  A    between atoms: _94  and  _96
REMARK   40  A    between atoms: _96  and  _97
REMARK   41  A    between atoms: _96  and  _99
REMARK   42  A    between atoms: _102  and  _104
REMARK   43  A    between atoms: _104  and  _105
REMARK   44  A    between atoms: _104  and  _107
REMARK   45  A    between atoms: _107  and  _108
REMARK   46  A    between atoms: _108  and  _109
REMARK   47  A    between atoms: _109  and  _110
REMARK   48  A    between atoms: _110  and  _111
REMARK   49  A    between atoms: _115  and  _117
REMARK   50  A    between atoms: _117  and  _118
REMARK   51  A    between atoms: _117  and  _120
REMARK   52  A    between atoms: _120  and  _121
REMARK   53  A    between atoms: _124  and  _126
REMARK   54  A    between atoms: _126  and  _127
REMARK   55  A    between atoms: _129  and  _131
REMARK   56  A    between atoms: _131  and  _132
REMARK   57  A    between atoms: _134  and  _136
REMARK   58  A    between atoms: _136  and  _137
REMARK   59  A    between atoms: _136  and  _139
REMARK   60  A    between atoms: _139  and  _140
REMARK   61  A    between atoms: _143  and  _145
REMARK   62  A    between atoms: _145  and  _146
REMARK   63  A    between atoms: _148  and  _150
REMARK   64  A    between atoms: _150  and  _151
REMARK   65  A    between atoms: _153  and  _155
REMARK   66  A    between atoms: _155  and  _156
REMARK   67  A    between atoms: _155  and  _158
REMARK   68  A    between atoms: _158  and  _159
REMARK   69  A    between atoms: _162  and  _164
REMARK   70  A    between atoms: _164  and  _165
REMARK   71  A    between atoms: _164  and  _167
REMARK   72  A    between atoms: _167  and  _168
REMARK   73  A    between atoms: _172  and  _173
REMARK   74  A    between atoms: _178  and  _180
REMARK   75  A    between atoms: _180  and  _181
REMARK   76  A    between atoms: _180  and  _183
REMARK   77  A    between atoms: _183  and  _184
REMARK   78  A    between atoms: _188  and  _189
REMARK   79  A    between atoms: _194  and  _196
REMARK   80  A    between atoms: _196  and  _197
REMARK   81  A    between atoms: _196  and  _199
REMARK   82  A    between atoms: _202  and  _204
REMARK   83  A    between atoms: _204  and  _205
REMARK   84  A    between atoms: _204  and  _207
REMARK   85  A    between atoms: _207  and  _208
REMARK   86  A    between atoms: _213  and  _215
REMARK   87  A    between atoms: _215  and  _216
REMARK   88  A    between atoms: _215  and  _218
REMARK   89  A    between atoms: _218  and  _219
REMARK   90  A    between atoms: _222  and  _224
REMARK   91  A    between atoms: _224  and  _225
REMARK   92  A    between atoms: _224  and  _227
REMARK   93  A    between atoms: _227  and  _228
REMARK   94  A    between atoms: _231  and  _233
REMARK   95  A    between atoms: _233  and  _234
REMARK   96  A    between atoms: _236  and  _238
REMARK   97  A    between atoms: _238  and  _239
REMARK   98  A    between atoms: _238  and  _241
REMARK   99  A    between atoms: _241  and  _242
REMARK  100  A    between atoms: _242  and  _243
REMARK  101  A    between atoms: _243  and  _244
REMARK  102  A    between atoms: _253  and  _255
REMARK  103  A    between atoms: _255  and  _256
REMARK  104  A    between atoms: _255  and  _258
REMARK  105  A    between atoms: _258  and  _259
REMARK  106  A    between atoms: _262  and  _264
REMARK  107  A    between atoms: _264  and  _265
REMARK  108  A    between atoms: _264  and  _267
REMARK  109  A    between atoms: _267  and  _268
REMARK  110  A    between atoms: _268  and  _269
REMARK  111  A    between atoms: _269  and  _270
REMARK  112  A    between atoms: _279  and  _281
REMARK  113  A    between atoms: _281  and  _282
REMARK  114  A    between atoms: _281  and  _284
REMARK  115  A    between atoms: _284  and  _285
REMARK  116  A    between atoms: _288  and  _290
REMARK  117  A    between atoms: _290  and  _291
REMARK  118  A    between atoms: _290  and  _293
REMARK  119  A    between atoms: _293  and  _294
REMARK  120  A    between atoms: _297  and  _299
REMARK  121  A    between atoms: _299  and  _300
REMARK  122  A    between atoms: _299  and  _302
REMARK  123  A    between atoms: _302  and  _303
REMARK  124  A    between atoms: _306  and  _308
REMARK  125  A    between atoms: _308  and  _309
REMARK  126  A    between atoms: _308  and  _311
REMARK  127  A    between atoms: _311  and  _312
REMARK  128  A    between atoms: _315  and  _317
REMARK  129  A    between atoms: _317  and  _318
REMARK  130  A    between atoms: _317  and  _320
REMARK  131  A    between atoms: _320  and  _321
REMARK  132  A    between atoms: _324  and  _326
REMARK  133  A    between atoms: _326  and  _327
REMARK  134  A    between atoms: _329  and  _331
REMARK  135  A    between atoms: _331  and  _332
REMARK  136  A    between atoms: _335  and  _337
REMARK  137  A    between atoms: _337  and  _338
REMARK  138  A    between atoms: _337  and  _340
REMARK  139  A    between atoms: _340  and  _341
REMARK  140  A    between atoms: _344  and  _346
REMARK  141  A    between atoms: _346  and  _347
REMARK  142  A    between atoms: _346  and  _349
REMARK  143  A    between atoms: _349  and  _350
REMARK  144  A    between atoms: _355  and  _357
REMARK  145  A    between atoms: _357  and  _358
REMARK  146  A    between atoms: _357  and  _360
REMARK  147  A    between atoms: _360  and  _361
REMARK  148  A    between atoms: _364  and  _366
REMARK  149  A    between atoms: _366  and  _367
REMARK  150  A    between atoms: _366  and  _369
REMARK  151  A    between atoms: _372  and  _374
REMARK  152  A    between atoms: _374  and  _375
REMARK  153  A    between atoms: _374  and  _377
REMARK  154  A    between atoms: _377  and  _378
REMARK  155  A    between atoms: _381  and  _383
REMARK  156  A    between atoms: _383  and  _384
REMARK  157  A    between atoms: _383  and  _386
REMARK  158  A    between atoms: _386  and  _387
REMARK  159  A    between atoms: _387  and  _388
REMARK  160  A    between atoms: _388  and  _389
REMARK  161  A    between atoms: _389  and  _390
REMARK  162  A    between atoms: _394  and  _396
REMARK  163  A    between atoms: _396  and  _397
REMARK  164  A    between atoms: _396  and  _399
REMARK  165  A    between atoms: _399  and  _400
REMARK  166  A    between atoms: _400  and  _401
REMARK  167  A    between atoms: _403  and  _405
REMARK  168  A    between atoms: _405  and  _406
REMARK  169  A    between atoms: _405  and  _408
REMARK  170  A    between atoms: _408  and  _409
REMARK  171  A    between atoms: _412  and  _414
REMARK  172  A    between atoms: _414  and  _415
REMARK  173  A    between atoms: _417  and  _419
REMARK  174  A    between atoms: _419  and  _420
REMARK  175  A    between atoms: _422  and  _424
REMARK  176  A    between atoms: _424  and  _425
REMARK  177  A    between atoms: _424  and  _427
REMARK  178  A    between atoms: _427  and  _428
REMARK  179  A    between atoms: _431  and  _433
REMARK  180  A    between atoms: _433  and  _434
REMARK  181  A    between atoms: _436  and  _438
REMARK  182  A    between atoms: _438  and  _439
REMARK  183  A    between atoms: _441  and  _443
REMARK  184  A    between atoms: _443  and  _444
REMARK  185  A    between atoms: _443  and  _446
REMARK  186  A    between atoms: _446  and  _447
REMARK  187  A    between atoms: _453  and  _455
REMARK  188  A    between atoms: _455  and  _456
REMARK  189  A    between atoms: _455  and  _458
REMARK  190  A    between atoms: _458  and  _459
REMARK  191  A    between atoms: _462  and  _464
REMARK  192  A    between atoms: _464  and  _465
REMARK  193  A    between atoms: _464  and  _467
REMARK  194  A    between atoms: _470  and  _472
REMARK  195  A    between atoms: _472  and  _473
REMARK  196  A    between atoms: _472  and  _475
REMARK  197  A    between atoms: _475  and  _476
REMARK  198  A    between atoms: _479  and  _481
REMARK  199  A    between atoms: _481  and  _482
REMARK  200  A    between atoms: _481  and  _484
REMARK  201  A    between atoms: _484  and  _485
REMARK  202  A    between atoms: _489  and  _490
REMARK  203  A    between atoms: _495  and  _497
REMARK  204  A    between atoms: _497  and  _498
REMARK  205  A    between atoms: _497  and  _500
REMARK  206  A    between atoms: _503  and  _505
REMARK  207  A    between atoms: _505  and  _506
REMARK  208  A    between atoms: _505  and  _508
REMARK  209  A    between atoms: _508  and  _509
REMARK  210  A    between atoms: _514  and  _516
REMARK  211  A    between atoms: _516  and  _517
REMARK  212  A    between atoms: _516  and  _519
REMARK  213  A    between atoms: _519  and  _520
REMARK  214  A    between atoms: _523  and  _525
REMARK  215  A    between atoms: _525  and  _526
REMARK  216  A    between atoms: _525  and  _528
REMARK  217  A    between atoms: _528  and  _529
REMARK  218  A    between atoms: _532  and  _534
REMARK  219  A    between atoms: _534  and  _535
REMARK  220  A    between atoms: _537  and  _539
REMARK  221  A    between atoms: _539  and  _540
REMARK  222  A    between atoms: _539  and  _542
REMARK  223  A    between atoms: _542  and  _543
REMARK  224  A    between atoms: _543  and  _544
REMARK  225  A    between atoms: _544  and  _545
REMARK                            x       y       z     vdW  Elec       q    Type
REMARK                         _______ _______ _______ _____ _____    ______ ____
ROOT
ATOM      1  O   HOH     1      -6.082  21.120  22.604  0.00  0.00    +0.000 OA
ENDROOT
TORSDOF 0
REMARK  Name = ../refined-set-2016/2pym/2pym_pocket.pdb
REMARK  225 active torsions:
REMARK  status: ('A' for Active; 'I' for Inactive)
REMARK    1  A    between atoms: _1  and  _3
REMARK    2  A    between atoms: _3  and  _4
REMARK    3  A    between atoms: _3  and  _6
REMARK    4  A    between atoms: _6  and  _7
REMARK    5  A    between atoms: _7  and  _8
REMARK    6  A    between atoms: _8  and  _9
REMARK    7  A    between atoms: _18  and  _20
REMARK    8  A    between atoms: _20  and  _21
REMARK    9  A    between atoms: _20  and  _23
REMARK   10  A    between atoms: _23  and  _24
REMARK   11  A    between atoms: _27  and  _29
REMARK   12  A    between atoms: _29  and  _30
REMARK   13  A    between atoms: _29  and  _32
REMARK   14  A    between atoms: _32  and  _33
REMARK   15  A    between atoms: _36  and  _38
REMARK   16  A    between atoms: _38  and  _39
REMARK   17  A    between atoms: _38  and  _41
REMARK   18  A    between atoms: _41  and  _42
REMARK   19  A    between atoms: _45  and  _47
REMARK   20  A    between atoms: _47  and  _48
REMARK   21  A    between atoms: _47  and  _50
REMARK   22  A    between atoms: _50  and  _51
REMARK   23  A    between atoms: _54  and  _56
REMARK   24  A    between atoms: _56  and  _57
REMARK   25  A    between atoms: _59  and  _61
REMARK   26  A    between atoms: _61  and  _62
REMARK   27  A    between atoms: _65  and  _67
REMARK   28  A    between atoms: _67  and  _68
REMARK   29  A    between atoms: _67  and  _70
REMARK   30  A    between atoms: _70  and  _71
REMARK   31  A    between atoms: _74  and  _76
REMARK   32  A    between atoms: _76  and  _77
REMARK   33  A    between atoms: _76  and  _79
REMARK   34  A    between atoms: _79  and  _80
REMARK   35  A    between atoms: _85  and  _87
REMARK   36  A    between atoms: _87  and  _88
REMARK   37  A    between atoms: _87  and  _90
REMARK   38  A    between atoms: _90  and  _91
REMARK   39  A    between atoms: _94  and  _96
REMARK   40  A    between atoms: _96  and  _97
REMARK   41  A    between atoms: _96  and  _99
REMARK   42  A    between atoms: _102  and  _104
REMARK   43  A    between atoms: _104  and  _105
REMARK   44  A    between atoms: _104  and  _107
REMARK   45  A    between atoms: _107  and  _108
REMARK   46  A    between atoms: _108  and  _109
REMARK   47  A    between atoms: _109  and  _110
REMARK   48  A    between atoms: _110  and  _111
REMARK   49  A    between atoms: _115  and  _117
REMARK   50  A    between atoms: _117  and  _118
REMARK   51  A    between atoms: _117  and  _120
REMARK   52  A    between atoms: _120  and  _121
REMARK   53  A    between atoms: _124  and  _126
REMARK   54  A    between atoms: _126  and  _127
REMARK   55  A    between atoms: _129  and  _131
REMARK   56  A    between atoms: _131  and  _132
REMARK   57  A    between atoms: _134  and  _136
REMARK   58  A    between atoms: _136  and  _137
REMARK   59  A    between atoms: _136  and  _139
REMARK   60  A    between atoms: _139  and  _140
REMARK   61  A    between atoms: _143  and  _145
REMARK   62  A    between atoms: _145  and  _146
REMARK   63  A    between atoms: _148  and  _150
REMARK   64  A    between atoms: _150  and  _151
REMARK   65  A    between atoms: _153  and  _155
REMARK   66  A    between atoms: _155  and  _156
REMARK   67  A    between atoms: _155  and  _158
REMARK   68  A    between atoms: _158  and  _159
REMARK   69  A    between atoms: _162  and  _164
REMARK   70  A    between atoms: _164  and  _165
REMARK   71  A    between atoms: _164  and  _167
REMARK   72  A    between atoms: _167  and  _168
REMARK   73  A    between atoms: _172  and  _173
REMARK   74  A    between atoms: _178  and  _180
REMARK   75  A    between atoms: _180  and  _181
REMARK   76  A    between atoms: _180  and  _183
REMARK   77  A    between atoms: _183  and  _184
REMARK   78  A    between atoms: _188  and  _189
REMARK   79  A    between atoms: _194  and  _196
REMARK   80  A    between atoms: _196  and  _197
REMARK   81  A    between atoms: _196  and  _199
REMARK   82  A    between atoms: _202  and  _204
REMARK   83  A    between atoms: _204  and  _205
REMARK   84  A    between atoms: _204  and  _207
REMARK   85  A    between atoms: _207  and  _208
REMARK   86  A    between atoms: _213  and  _215
REMARK   87  A    between atoms: _215  and  _216
REMARK   88  A    between atoms: _215  and  _218
REMARK   89  A    between atoms: _218  and  _219
REMARK   90  A    between atoms: _222  and  _224
REMARK   91  A    between atoms: _224  and  _225
REMARK   92  A    between atoms: _224  and  _227
REMARK   93  A    between atoms: _227  and  _228
REMARK   94  A    between atoms: _231  and  _233
REMARK   95  A    between atoms: _233  and  _234
REMARK   96  A    between atoms: _236  and  _238
REMARK   97  A    between atoms: _238  and  _239
REMARK   98  A    between atoms: _238  and  _241
REMARK   99  A    between atoms: _241  and  _242
REMARK  100  A    between atoms: _242  and  _243
REMARK  101  A    between atoms: _243  and  _244
REMARK  102  A    between atoms: _253  and  _255
REMARK  103  A    between atoms: _255  and  _256
REMARK  104  A    between atoms: _255  and  _258
REMARK  105  A    between atoms: _258  and  _259
REMARK  106  A    between atoms: _262  and  _264
REMARK  107  A    between atoms: _264  and  _265
REMARK  108  A    between atoms: _264  and  _267
REMARK  109  A    between atoms: _267  and  _268
REMARK  110  A    between atoms: _268  and  _269
REMARK  111  A    between atoms: _269  and  _270
REMARK  112  A    between atoms: _279  and  _281
REMARK  113  A    between atoms: _281  and  _282
REMARK  114  A    between atoms: _281  and  _284
REMARK  115  A    between atoms: _284  and  _285
REMARK  116  A    between atoms: _288  and  _290
REMARK  117  A    between atoms: _290  and  _291
REMARK  118  A    between atoms: _290  and  _293
REMARK  119  A    between atoms: _293  and  _294
REMARK  120  A    between atoms: _297  and  _299
REMARK  121  A    between atoms: _299  and  _300
REMARK  122  A    between atoms: _299  and  _302
REMARK  123  A    between atoms: _302  and  _303
REMARK  124  A    between atoms: _306  and  _308
REMARK  125  A    between atoms: _308  and  _309
REMARK  126  A    between atoms: _308  and  _311
REMARK  127  A    between atoms: _311  and  _312
REMARK  128  A    between atoms: _315  and  _317
REMARK  129  A    between atoms: _317  and  _318
REMARK  130  A    between atoms: _317  and  _320
REMARK  131  A    between atoms: _320  and  _321
REMARK  132  A    between atoms: _324  and  _326
REMARK  133  A    between atoms: _326  and  _327
REMARK  134  A    between atoms: _329  and  _331
REMARK  135  A    between atoms: _331  and  _332
REMARK  136  A    between atoms: _335  and  _337
REMARK  137  A    between atoms: _337  and  _338
REMARK  138  A    between atoms: _337  and  _340
REMARK  139  A    between atoms: _340  and  _341
REMARK  140  A    between atoms: _344  and  _346
REMARK  141  A    between atoms: _346  and  _347
REMARK  142  A    between atoms: _346  and  _349
REMARK  143  A    between atoms: _349  and  _350
REMARK  144  A    between atoms: _355  and  _357
REMARK  145  A    between atoms: _357  and  _358
REMARK  146  A    between atoms: _357  and  _360
REMARK  147  A    between atoms: _360  and  _361
REMARK  148  A    between atoms: _364  and  _366
REMARK  149  A    between atoms: _366  and  _367
REMARK  150  A    between atoms: _366  and  _369
REMARK  151  A    between atoms: _372  and  _374
REMARK  152  A    between atoms: _374  and  _375
REMARK  153  A    between atoms: _374  and  _377
REMARK  154  A    between atoms: _377  and  _378
REMARK  155  A    between atoms: _381  and  _383
REMARK  156  A    between atoms: _383  and  _384
REMARK  157  A    between atoms: _383  and  _386
REMARK  158  A    between atoms: _386  and  _387
REMARK  159  A    between atoms: _387  and  _388
REMARK  160  A    between atoms: _388  and  _389
REMARK  161  A    between atoms: _389  and  _390
REMARK  162  A    between atoms: _394  and  _396
REMARK  163  A    between atoms: _396  and  _397
REMARK  164  A    between atoms: _396  and  _399
REMARK  165  A    between atoms: _399  and  _400
REMARK  166  A    between atoms: _400  and  _401
REMARK  167  A    between atoms: _403  and  _405
REMARK  168  A    between atoms: _405  and  _406
REMARK  169  A    between atoms: _405  and  _408
REMARK  170  A    between atoms: _408  and  _409
REMARK  171  A    between atoms: _412  and  _414
REMARK  172  A    between atoms: _414  and  _415
REMARK  173  A    between atoms: _417  and  _419
REMARK  174  A    between atoms: _419  and  _420
REMARK  175  A    between atoms: _422  and  _424
REMARK  176  A    between atoms: _424  and  _425
REMARK  177  A    between atoms: _424  and  _427
REMARK  178  A    between atoms: _427  and  _428
REMARK  179  A    between atoms: _431  and  _433
REMARK  180  A    between atoms: _433  and  _434
REMARK  181  A    between atoms: _436  and  _438
REMARK  182  A    between atoms: _438  and  _439
REMARK  183  A    between atoms: _441  and  _443
REMARK  184  A    between atoms: _443  and  _444
REMARK  185  A    between atoms: _443  and  _446
REMARK  186  A    between atoms: _446  and  _447
REMARK  187  A    between atoms: _453  and  _455
REMARK  188  A    between atoms: _455  and  _456
REMARK  189  A    between atoms: _455  and  _458
REMARK  190  A    between atoms: _458  and  _459
REMARK  191  A    between atoms: _462  and  _464
REMARK  192  A    between atoms: _464  and  _465
REMARK  193  A    between atoms: _464  and  _467
REMARK  194  A    between atoms: _470  and  _472
REMARK  195  A    between atoms: _472  and  _473
REMARK  196  A    between atoms: _472  and  _475
REMARK  197  A    between atoms: _475  and  _476
REMARK  198  A    between atoms: _479  and  _481
REMARK  199  A    between atoms: _481  and  _482
REMARK  200  A    between atoms: _481  and  _484
REMARK  201  A    between atoms: _484  and  _485
REMARK  202  A    between atoms: _489  and  _490
REMARK  203  A    between atoms: _495  and  _497
REMARK  204  A    between atoms: _497  and  _498
REMARK  205  A    between atoms: _497  and  _500
REMARK  206  A    between atoms: _503  and  _505
REMARK  207  A    between atoms: _505  and  _506
REMARK  208  A    between atoms: _505  and  _508
REMARK  209  A    between atoms: _508  and  _509
REMARK  210  A    between atoms: _514  and  _516
REMARK  211  A    between atoms: _516  and  _517
REMARK  212  A    between atoms: _516  and  _519
REMARK  213  A    between atoms: _519  and  _520
REMARK  214  A    between atoms: _523  and  _525
REMARK  215  A    between atoms: _525  and  _526
REMARK  216  A    between atoms: _525  and  _528
REMARK  217  A    between atoms: _528  and  _529
REMARK  218  A    between atoms: _532  and  _534
REMARK  219  A    between atoms: _534  and  _535
REMARK  220  A    between atoms: _537  and  _539
REMARK  221  A    between atoms: _539  and  _540
REMARK  222  A    between atoms: _539  and  _542
REMARK  223  A    between atoms: _542  and  _543
REMARK  224  A    between atoms: _543  and  _544
REMARK  225  A    between atoms: _544  and  _545
REMARK                            x       y       z     vdW  Elec       q    Type
REMARK                         _______ _______ _______ _____ _____    ______ ____
ROOT
ATOM      1  O   HOH     1      -9.886  17.396  12.568  0.00  0.00    +0.000 OA
ENDROOT
TORSDOF 0
REMARK  Name = ../refined-set-2016/2pym/2pym_pocket.pdb
REMARK  225 active torsions:
REMARK  status: ('A' for Active; 'I' for Inactive)
REMARK    1  A    between atoms: _1  and  _3
REMARK    2  A    between atoms: _3  and  _4
REMARK    3  A    between atoms: _3  and  _6
REMARK    4  A    between atoms: _6  and  _7
REMARK    5  A    between atoms: _7  and  _8
REMARK    6  A    between atoms: _8  and  _9
REMARK    7  A    between atoms: _18  and  _20
REMARK    8  A    between atoms: _20  and  _21
REMARK    9  A    between atoms: _20  and  _23
REMARK   10  A    between atoms: _23  and  _24
REMARK   11  A    between atoms: _27  and  _29
REMARK   12  A    between atoms: _29  and  _30
REMARK   13  A    between atoms: _29  and  _32
REMARK   14  A    between atoms: _32  and  _33
REMARK   15  A    between atoms: _36  and  _38
REMARK   16  A    between atoms: _38  and  _39
REMARK   17  A    between atoms: _38  and  _41
REMARK   18  A    between atoms: _41  and  _42
REMARK   19  A    between atoms: _45  and  _47
REMARK   20  A    between atoms: _47  and  _48
REMARK   21  A    between atoms: _47  and  _50
REMARK   22  A    between atoms: _50  and  _51
REMARK   23  A    between atoms: _54  and  _56
REMARK   24  A    between atoms: _56  and  _57
REMARK   25  A    between atoms: _59  and  _61
REMARK   26  A    between atoms: _61  and  _62
REMARK   27  A    between atoms: _65  and  _67
REMARK   28  A    between atoms: _67  and  _68
REMARK   29  A    between atoms: _67  and  _70
REMARK   30  A    between atoms: _70  and  _71
REMARK   31  A    between atoms: _74  and  _76
REMARK   32  A    between atoms: _76  and  _77
REMARK   33  A    between atoms: _76  and  _79
REMARK   34  A    between atoms: _79  and  _80
REMARK   35  A    between atoms: _85  and  _87
REMARK   36  A    between atoms: _87  and  _88
REMARK   37  A    between atoms: _87  and  _90
REMARK   38  A    between atoms: _90  and  _91
REMARK   39  A    between atoms: _94  and  _96
REMARK   40  A    between atoms: _96  and  _97
REMARK   41  A    between atoms: _96  and  _99
REMARK   42  A    between atoms: _102  and  _104
REMARK   43  A    between atoms: _104  and  _105
REMARK   44  A    between atoms: _104  and  _107
REMARK   45  A    between atoms: _107  and  _108
REMARK   46  A    between atoms: _108  and  _109
REMARK   47  A    between atoms: _109  and  _110
REMARK   48  A    between atoms: _110  and  _111
REMARK   49  A    between atoms: _115  and  _117
REMARK   50  A    between atoms: _117  and  _118
REMARK   51  A    between atoms: _117  and  _120
REMARK   52  A    between atoms: _120  and  _121
REMARK   53  A    between atoms: _124  and  _126
REMARK   54  A    between atoms: _126  and  _127
REMARK   55  A    between atoms: _129  and  _131
REMARK   56  A    between atoms: _131  and  _132
REMARK   57  A    between atoms: _134  and  _136
REMARK   58  A    between atoms: _136  and  _137
REMARK   59  A    between atoms: _136  and  _139
REMARK   60  A    between atoms: _139  and  _140
REMARK   61  A    between atoms: _143  and  _145
REMARK   62  A    between atoms: _145  and  _146
REMARK   63  A    between atoms: _148  and  _150
REMARK   64  A    between atoms: _150  and  _151
REMARK   65  A    between atoms: _153  and  _155
REMARK   66  A    between atoms: _155  and  _156
REMARK   67  A    between atoms: _155  and  _158
REMARK   68  A    between atoms: _158  and  _159
REMARK   69  A    between atoms: _162  and  _164
REMARK   70  A    between atoms: _164  and  _165
REMARK   71  A    between atoms: _164  and  _167
REMARK   72  A    between atoms: _167  and  _168
REMARK   73  A    between atoms: _172  and  _173
REMARK   74  A    between atoms: _178  and  _180
REMARK   75  A    between atoms: _180  and  _181
REMARK   76  A    between atoms: _180  and  _183
REMARK   77  A    between atoms: _183  and  _184
REMARK   78  A    between atoms: _188  and  _189
REMARK   79  A    between atoms: _194  and  _196
REMARK   80  A    between atoms: _196  and  _197
REMARK   81  A    between atoms: _196  and  _199
REMARK   82  A    between atoms: _202  and  _204
REMARK   83  A    between atoms: _204  and  _205
REMARK   84  A    between atoms: _204  and  _207
REMARK   85  A    between atoms: _207  and  _208
REMARK   86  A    between atoms: _213  and  _215
REMARK   87  A    between atoms: _215  and  _216
REMARK   88  A    between atoms: _215  and  _218
REMARK   89  A    between atoms: _218  and  _219
REMARK   90  A    between atoms: _222  and  _224
REMARK   91  A    between atoms: _224  and  _225
REMARK   92  A    between atoms: _224  and  _227
REMARK   93  A    between atoms: _227  and  _228
REMARK   94  A    between atoms: _231  and  _233
REMARK   95  A    between atoms: _233  and  _234
REMARK   96  A    between atoms: _236  and  _238
REMARK   97  A    between atoms: _238  and  _239
REMARK   98  A    between atoms: _238  and  _241
REMARK   99  A    between atoms: _241  and  _242
REMARK  100  A    between atoms: _242  and  _243
REMARK  101  A    between atoms: _243  and  _244
REMARK  102  A    between atoms: _253  and  _255
REMARK  103  A    between atoms: _255  and  _256
REMARK  104  A    between atoms: _255  and  _258
REMARK  105  A    between atoms: _258  and  _259
REMARK  106  A    between atoms: _262  and  _264
REMARK  107  A    between atoms: _264  and  _265
REMARK  108  A    between atoms: _264  and  _267
REMARK  109  A    between atoms: _267  and  _268
REMARK  110  A    between atoms: _268  and  _269
REMARK  111  A    between atoms: _269  and  _270
REMARK  112  A    between atoms: _279  and  _281
REMARK  113  A    between atoms: _281  and  _282
REMARK  114  A    between atoms: _281  and  _284
REMARK  115  A    between atoms: _284  and  _285
REMARK  116  A    between atoms: _288  and  _290
REMARK  117  A    between atoms: _290  and  _291
REMARK  118  A    between atoms: _290  and  _293
REMARK  119  A    between atoms: _293  and  _294
REMARK  120  A    between atoms: _297  and  _299
REMARK  121  A    between atoms: _299  and  _300
REMARK  122  A    between atoms: _299  and  _302
REMARK  123  A    between atoms: _302  and  _303
REMARK  124  A    between atoms: _306  and  _308
REMARK  125  A    between atoms: _308  and  _309
REMARK  126  A    between atoms: _308  and  _311
REMARK  127  A    between atoms: _311  and  _312
REMARK  128  A    between atoms: _315  and  _317
REMARK  129  A    between atoms: _317  and  _318
REMARK  130  A    between atoms: _317  and  _320
REMARK  131  A    between atoms: _320  and  _321
REMARK  132  A    between atoms: _324  and  _326
REMARK  133  A    between atoms: _326  and  _327
REMARK  134  A    between atoms: _329  and  _331
REMARK  135  A    between atoms: _331  and  _332
REMARK  136  A    between atoms: _335  and  _337
REMARK  137  A    between atoms: _337  and  _338
REMARK  138  A    between atoms: _337  and  _340
REMARK  139  A    between atoms: _340  and  _341
REMARK  140  A    between atoms: _344  and  _346
REMARK  141  A    between atoms: _346  and  _347
REMARK  142  A    between atoms: _346  and  _349
REMARK  143  A    between atoms: _349  and  _350
REMARK  144  A    between atoms: _355  and  _357
REMARK  145  A    between atoms: _357  and  _358
REMARK  146  A    between atoms: _357  and  _360
REMARK  147  A    between atoms: _360  and  _361
REMARK  148  A    between atoms: _364  and  _366
REMARK  149  A    between atoms: _366  and  _367
REMARK  150  A    between atoms: _366  and  _369
REMARK  151  A    between atoms: _372  and  _374
REMARK  152  A    between atoms: _374  and  _375
REMARK  153  A    between atoms: _374  and  _377
REMARK  154  A    between atoms: _377  and  _378
REMARK  155  A    between atoms: _381  and  _383
REMARK  156  A    between atoms: _383  and  _384
REMARK  157  A    between atoms: _383  and  _386
REMARK  158  A    between atoms: _386  and  _387
REMARK  159  A    between atoms: _387  and  _388
REMARK  160  A    between atoms: _388  and  _389
REMARK  161  A    between atoms: _389  and  _390
REMARK  162  A    between atoms: _394  and  _396
REMARK  163  A    between atoms: _396  and  _397
REMARK  164  A    between atoms: _396  and  _399
REMARK  165  A    between atoms: _399  and  _400
REMARK  166  A    between atoms: _400  and  _401
REMARK  167  A    between atoms: _403  and  _405
REMARK  168  A    between atoms: _405  and  _406
REMARK  169  A    between atoms: _405  and  _408
REMARK  170  A    between atoms: _408  and  _409
REMARK  171  A    between atoms: _412  and  _414
REMARK  172  A    between atoms: _414  and  _415
REMARK  173  A    between atoms: _417  and  _419
REMARK  174  A    between atoms: _419  and  _420
REMARK  175  A    between atoms: _422  and  _424
REMARK  176  A    between atoms: _424  and  _425
REMARK  177  A    between atoms: _424  and  _427
REMARK  178  A    between atoms: _427  and  _428
REMARK  179  A    between atoms: _431  and  _433
REMARK  180  A    between atoms: _433  and  _434
REMARK  181  A    between atoms: _436  and  _438
REMARK  182  A    between atoms: _438  and  _439
REMARK  183  A    between atoms: _441  and  _443
REMARK  184  A    between atoms: _443  and  _444
REMARK  185  A    between atoms: _443  and  _446
REMARK  186  A    between atoms: _446  and  _447
REMARK  187  A    between atoms: _453  and  _455
REMARK  188  A    between atoms: _455  and  _456
REMARK  189  A    between atoms: _455  and  _458
REMARK  190  A    between atoms: _458  and  _459
REMARK  191  A    between atoms: _462  and  _464
REMARK  192  A    between atoms: _464  and  _465
REMARK  193  A    between atoms: _464  and  _467
REMARK  194  A    between atoms: _470  and  _472
REMARK  195  A    between atoms: _472  and  _473
REMARK  196  A    between atoms: _472  and  _475
REMARK  197  A    between atoms: _475  and  _476
REMARK  198  A    between atoms: _479  and  _481
REMARK  199  A    between atoms: _481  and  _482
REMARK  200  A    between atoms: _481  and  _484
REMARK  201  A    between atoms: _484  and  _485
REMARK  202  A    between atoms: _489  and  _490
REMARK  203  A    between atoms: _495  and  _497
REMARK  204  A    between atoms: _497  and  _498
REMARK  205  A    between atoms: _497  and  _500
REMARK  206  A    between atoms: _503  and  _505
REMARK  207  A    between atoms: _505  and  _506
REMARK  208  A    between atoms: _505  and  _508
REMARK  209  A    between atoms: _508  and  _509
REMARK  210  A    between atoms: _514  and  _516
REMARK  211  A    between atoms: _516  and  _517
REMARK  212  A    between atoms: _516  and  _519
REMARK  213  A    between atoms: _519  and  _520
REMARK  214  A    between atoms: _523  and  _525
REMARK  215  A    between atoms: _525  and  _526
REMARK  216  A    between atoms: _525  and  _528
REMARK  217  A    between atoms: _528  and  _529
REMARK  218  A    between atoms: _532  and  _534
REMARK  219  A    between atoms: _534  and  _535
REMARK  220  A    between atoms: _537  and  _539
REMARK  221  A    between atoms: _539  and  _540
REMARK  222  A    between atoms: _539  and  _542
REMARK  223  A    between atoms: _542  and  _543
REMARK  224  A    between atoms: _543  and  _544
REMARK  225  A    between atoms: _544  and  _545
REMARK                            x       y       z     vdW  Elec       q    Type
REMARK                         _______ _______ _______ _____ _____    ______ ____
ROOT
ATOM      1  O   HOH     1     -20.207  12.541  29.923  0.00  0.00    +0.000 OA
ENDROOT
TORSDOF 0
REMARK  Name = ../refined-set-2016/2pym/2pym_pocket.pdb
REMARK  225 active torsions:
REMARK  status: ('A' for Active; 'I' for Inactive)
REMARK    1  A    between atoms: _1  and  _3
REMARK    2  A    between atoms: _3  and  _4
REMARK    3  A    between atoms: _3  and  _6
REMARK    4  A    between atoms: _6  and  _7
REMARK    5  A    between atoms: _7  and  _8
REMARK    6  A    between atoms: _8  and  _9
REMARK    7  A    between atoms: _18  and  _20
REMARK    8  A    between atoms: _20  and  _21
REMARK    9  A    between atoms: _20  and  _23
REMARK   10  A    between atoms: _23  and  _24
REMARK   11  A    between atoms: _27  and  _29
REMARK   12  A    between atoms: _29  and  _30
REMARK   13  A    between atoms: _29  and  _32
REMARK   14  A    between atoms: _32  and  _33
REMARK   15  A    between atoms: _36  and  _38
REMARK   16  A    between atoms: _38  and  _39
REMARK   17  A    between atoms: _38  and  _41
REMARK   18  A    between atoms: _41  and  _42
REMARK   19  A    between atoms: _45  and  _47
REMARK   20  A    between atoms: _47  and  _48
REMARK   21  A    between atoms: _47  and  _50
REMARK   22  A    between atoms: _50  and  _51
REMARK   23  A    between atoms: _54  and  _56
REMARK   24  A    between atoms: _56  and  _57
REMARK   25  A    between atoms: _59  and  _61
REMARK   26  A    between atoms: _61  and  _62
REMARK   27  A    between atoms: _65  and  _67
REMARK   28  A    between atoms: _67  and  _68
REMARK   29  A    between atoms: _67  and  _70
REMARK   30  A    between atoms: _70  and  _71
REMARK   31  A    between atoms: _74  and  _76
REMARK   32  A    between atoms: _76  and  _77
REMARK   33  A    between atoms: _76  and  _79
REMARK   34  A    between atoms: _79  and  _80
REMARK   35  A    between atoms: _85  and  _87
REMARK   36  A    between atoms: _87  and  _88
REMARK   37  A    between atoms: _87  and  _90
REMARK   38  A    between atoms: _90  and  _91
REMARK   39  A    between atoms: _94  and  _96
REMARK   40  A    between atoms: _96  and  _97
REMARK   41  A    between atoms: _96  and  _99
REMARK   42  A    between atoms: _102  and  _104
REMARK   43  A    between atoms: _104  and  _105
REMARK   44  A    between atoms: _104  and  _107
REMARK   45  A    between atoms: _107  and  _108
REMARK   46  A    between atoms: _108  and  _109
REMARK   47  A    between atoms: _109  and  _110
REMARK   48  A    between atoms: _110  and  _111
REMARK   49  A    between atoms: _115  and  _117
REMARK   50  A    between atoms: _117  and  _118
REMARK   51  A    between atoms: _117  and  _120
REMARK   52  A    between atoms: _120  and  _121
REMARK   53  A    between atoms: _124  and  _126
REMARK   54  A    between atoms: _126  and  _127
REMARK   55  A    between atoms: _129  and  _131
REMARK   56  A    between atoms: _131  and  _132
REMARK   57  A    between atoms: _134  and  _136
REMARK   58  A    between atoms: _136  and  _137
REMARK   59  A    between atoms: _136  and  _139
REMARK   60  A    between atoms: _139  and  _140
REMARK   61  A    between atoms: _143  and  _145
REMARK   62  A    between atoms: _145  and  _146
REMARK   63  A    between atoms: _148  and  _150
REMARK   64  A    between atoms: _150  and  _151
REMARK   65  A    between atoms: _153  and  _155
REMARK   66  A    between atoms: _155  and  _156
REMARK   67  A    between atoms: _155  and  _158
REMARK   68  A    between atoms: _158  and  _159
REMARK   69  A    between atoms: _162  and  _164
REMARK   70  A    between atoms: _164  and  _165
REMARK   71  A    between atoms: _164  and  _167
REMARK   72  A    between atoms: _167  and  _168
REMARK   73  A    between atoms: _172  and  _173
REMARK   74  A    between atoms: _178  and  _180
REMARK   75  A    between atoms: _180  and  _181
REMARK   76  A    between atoms: _180  and  _183
REMARK   77  A    between atoms: _183  and  _184
REMARK   78  A    between atoms: _188  and  _189
REMARK   79  A    between atoms: _194  and  _196
REMARK   80  A    between atoms: _196  and  _197
REMARK   81  A    between atoms: _196  and  _199
REMARK   82  A    between atoms: _202  and  _204
REMARK   83  A    between atoms: _204  and  _205
REMARK   84  A    between atoms: _204  and  _207
REMARK   85  A    between atoms: _207  and  _208
REMARK   86  A    between atoms: _213  and  _215
REMARK   87  A    between atoms: _215  and  _216
REMARK   88  A    between atoms: _215  and  _218
REMARK   89  A    between atoms: _218  and  _219
REMARK   90  A    between atoms: _222  and  _224
REMARK   91  A    between atoms: _224  and  _225
REMARK   92  A    between atoms: _224  and  _227
REMARK   93  A    between atoms: _227  and  _228
REMARK   94  A    between atoms: _231  and  _233
REMARK   95  A    between atoms: _233  and  _234
REMARK   96  A    between atoms: _236  and  _238
REMARK   97  A    between atoms: _238  and  _239
REMARK   98  A    between atoms: _238  and  _241
REMARK   99  A    between atoms: _241  and  _242
REMARK  100  A    between atoms: _242  and  _243
REMARK  101  A    between atoms: _243  and  _244
REMARK  102  A    between atoms: _253  and  _255
REMARK  103  A    between atoms: _255  and  _256
REMARK  104  A    between atoms: _255  and  _258
REMARK  105  A    between atoms: _258  and  _259
REMARK  106  A    between atoms: _262  and  _264
REMARK  107  A    between atoms: _264  and  _265
REMARK  108  A    between atoms: _264  and  _267
REMARK  109  A    between atoms: _267  and  _268
REMARK  110  A    between atoms: _268  and  _269
REMARK  111  A    between atoms: _269  and  _270
REMARK  112  A    between atoms: _279  and  _281
REMARK  113  A    between atoms: _281  and  _282
REMARK  114  A    between atoms: _281  and  _284
REMARK  115  A    between atoms: _284  and  _285
REMARK  116  A    between atoms: _288  and  _290
REMARK  117  A    between atoms: _290  and  _291
REMARK  118  A    between atoms: _290  and  _293
REMARK  119  A    between atoms: _293  and  _294
REMARK  120  A    between atoms: _297  and  _299
REMARK  121  A    between atoms: _299  and  _300
REMARK  122  A    between atoms: _299  and  _302
REMARK  123  A    between atoms: _302  and  _303
REMARK  124  A    between atoms: _306  and  _308
REMARK  125  A    between atoms: _308  and  _309
REMARK  126  A    between atoms: _308  and  _311
REMARK  127  A    between atoms: _311  and  _312
REMARK  128  A    between atoms: _315  and  _317
REMARK  129  A    between atoms: _317  and  _318
REMARK  130  A    between atoms: _317  and  _320
REMARK  131  A    between atoms: _320  and  _321
REMARK  132  A    between atoms: _324  and  _326
REMARK  133  A    between atoms: _326  and  _327
REMARK  134  A    between atoms: _329  and  _331
REMARK  135  A    between atoms: _331  and  _332
REMARK  136  A    between atoms: _335  and  _337
REMARK  137  A    between atoms: _337  and  _338
REMARK  138  A    between atoms: _337  and  _340
REMARK  139  A    between atoms: _340  and  _341
REMARK  140  A    between atoms: _344  and  _346
REMARK  141  A    between atoms: _346  and  _347
REMARK  142  A    between atoms: _346  and  _349
REMARK  143  A    between atoms: _349  and  _350
REMARK  144  A    between atoms: _355  and  _357
REMARK  145  A    between atoms: _357  and  _358
REMARK  146  A    between atoms: _357  and  _360
REMARK  147  A    between atoms: _360  and  _361
REMARK  148  A    between atoms: _364  and  _366
REMARK  149  A    between atoms: _366  and  _367
REMARK  150  A    between atoms: _366  and  _369
REMARK  151  A    between atoms: _372  and  _374
REMARK  152  A    between atoms: _374  and  _375
REMARK  153  A    between atoms: _374  and  _377
REMARK  154  A    between atoms: _377  and  _378
REMARK  155  A    between atoms: _381  and  _383
REMARK  156  A    between atoms: _383  and  _384
REMARK  157  A    between atoms: _383  and  _386
REMARK  158  A    between atoms: _386  and  _387
REMARK  159  A    between atoms: _387  and  _388
REMARK  160  A    between atoms: _388  and  _389
REMARK  161  A    between atoms: _389  and  _390
REMARK  162  A    between atoms: _394  and  _396
REMARK  163  A    between atoms: _396  and  _397
REMARK  164  A    between atoms: _396  and  _399
REMARK  165  A    between atoms: _399  and  _400
REMARK  166  A    between atoms: _400  and  _401
REMARK  167  A    between atoms: _403  and  _405
REMARK  168  A    between atoms: _405  and  _406
REMARK  169  A    between atoms: _405  and  _408
REMARK  170  A    between atoms: _408  and  _409
REMARK  171  A    between atoms: _412  and  _414
REMARK  172  A    between atoms: _414  and  _415
REMARK  173  A    between atoms: _417  and  _419
REMARK  174  A    between atoms: _419  and  _420
REMARK  175  A    between atoms: _422  and  _424
REMARK  176  A    between atoms: _424  and  _425
REMARK  177  A    between atoms: _424  and  _427
REMARK  178  A    between atoms: _427  and  _428
REMARK  179  A    between atoms: _431  and  _433
REMARK  180  A    between atoms: _433  and  _434
REMARK  181  A    between atoms: _436  and  _438
REMARK  182  A    between atoms: _438  and  _439
REMARK  183  A    between atoms: _441  and  _443
REMARK  184  A    between atoms: _443  and  _444
REMARK  185  A    between atoms: _443  and  _446
REMARK  186  A    between atoms: _446  and  _447
REMARK  187  A    between atoms: _453  and  _455
REMARK  188  A    between atoms: _455  and  _456
REMARK  189  A    between atoms: _455  and  _458
REMARK  190  A    between atoms: _458  and  _459
REMARK  191  A    between atoms: _462  and  _464
REMARK  192  A    between atoms: _464  and  _465
REMARK  193  A    between atoms: _464  and  _467
REMARK  194  A    between atoms: _470  and  _472
REMARK  195  A    between atoms: _472  and  _473
REMARK  196  A    between atoms: _472  and  _475
REMARK  197  A    between atoms: _475  and  _476
REMARK  198  A    between atoms: _479  and  _481
REMARK  199  A    between atoms: _481  and  _482
REMARK  200  A    between atoms: _481  and  _484
REMARK  201  A    between atoms: _484  and  _485
REMARK  202  A    between atoms: _489  and  _490
REMARK  203  A    between atoms: _495  and  _497
REMARK  204  A    between atoms: _497  and  _498
REMARK  205  A    between atoms: _497  and  _500
REMARK  206  A    between atoms: _503  and  _505
REMARK  207  A    between atoms: _505  and  _506
REMARK  208  A    between atoms: _505  and  _508
REMARK  209  A    between atoms: _508  and  _509
REMARK  210  A    between atoms: _514  and  _516
REMARK  211  A    between atoms: _516  and  _517
REMARK  212  A    between atoms: _516  and  _519
REMARK  213  A    between atoms: _519  and  _520
REMARK  214  A    between atoms: _523  and  _525
REMARK  215  A    between atoms: _525  and  _526
REMARK  216  A    between atoms: _525  and  _528
REMARK  217  A    between atoms: _528  and  _529
REMARK  218  A    between atoms: _532  and  _534
REMARK  219  A    between atoms: _534  and  _535
REMARK  220  A    between atoms: _537  and  _539
REMARK  221  A    between atoms: _539  and  _540
REMARK  222  A    between atoms: _539  and  _542
REMARK  223  A    between atoms: _542  and  _543
REMARK  224  A    between atoms: _543  and  _544
REMARK  225  A    between atoms: _544  and  _545
REMARK                            x       y       z     vdW  Elec       q    Type
REMARK                         _______ _______ _______ _____ _____    ______ ____
ROOT
ATOM      1  O   HOH     1      -8.500  22.241  15.470  0.00  0.00    +0.000 OA
ENDROOT
TORSDOF 0
REMARK  Name = ../refined-set-2016/2pym/2pym_pocket.pdb
REMARK  225 active torsions:
REMARK  status: ('A' for Active; 'I' for Inactive)
REMARK    1  A    between atoms: _1  and  _3
REMARK    2  A    between atoms: _3  and  _4
REMARK    3  A    between atoms: _3  and  _6
REMARK    4  A    between atoms: _6  and  _7
REMARK    5  A    between atoms: _7  and  _8
REMARK    6  A    between atoms: _8  and  _9
REMARK    7  A    between atoms: _18  and  _20
REMARK    8  A    between atoms: _20  and  _21
REMARK    9  A    between atoms: _20  and  _23
REMARK   10  A    between atoms: _23  and  _24
REMARK   11  A    between atoms: _27  and  _29
REMARK   12  A    between atoms: _29  and  _30
REMARK   13  A    between atoms: _29  and  _32
REMARK   14  A    between atoms: _32  and  _33
REMARK   15  A    between atoms: _36  and  _38
REMARK   16  A    between atoms: _38  and  _39
REMARK   17  A    between atoms: _38  and  _41
REMARK   18  A    between atoms: _41  and  _42
REMARK   19  A    between atoms: _45  and  _47
REMARK   20  A    between atoms: _47  and  _48
REMARK   21  A    between atoms: _47  and  _50
REMARK   22  A    between atoms: _50  and  _51
REMARK   23  A    between atoms: _54  and  _56
REMARK   24  A    between atoms: _56  and  _57
REMARK   25  A    between atoms: _59  and  _61
REMARK   26  A    between atoms: _61  and  _62
REMARK   27  A    between atoms: _65  and  _67
REMARK   28  A    between atoms: _67  and  _68
REMARK   29  A    between atoms: _67  and  _70
REMARK   30  A    between atoms: _70  and  _71
REMARK   31  A    between atoms: _74  and  _76
REMARK   32  A    between atoms: _76  and  _77
REMARK   33  A    between atoms: _76  and  _79
REMARK   34  A    between atoms: _79  and  _80
REMARK   35  A    between atoms: _85  and  _87
REMARK   36  A    between atoms: _87  and  _88
REMARK   37  A    between atoms: _87  and  _90
REMARK   38  A    between atoms: _90  and  _91
REMARK   39  A    between atoms: _94  and  _96
REMARK   40  A    between atoms: _96  and  _97
REMARK   41  A    between atoms: _96  and  _99
REMARK   42  A    between atoms: _102  and  _104
REMARK   43  A    between atoms: _104  and  _105
REMARK   44  A    between atoms: _104  and  _107
REMARK   45  A    between atoms: _107  and  _108
REMARK   46  A    between atoms: _108  and  _109
REMARK   47  A    between atoms: _109  and  _110
REMARK   48  A    between atoms: _110  and  _111
REMARK   49  A    between atoms: _115  and  _117
REMARK   50  A    between atoms: _117  and  _118
REMARK   51  A    between atoms: _117  and  _120
REMARK   52  A    between atoms: _120  and  _121
REMARK   53  A    between atoms: _124  and  _126
REMARK   54  A    between atoms: _126  and  _127
REMARK   55  A    between atoms: _129  and  _131
REMARK   56  A    between atoms: _131  and  _132
REMARK   57  A    between atoms: _134  and  _136
REMARK   58  A    between atoms: _136  and  _137
REMARK   59  A    between atoms: _136  and  _139
REMARK   60  A    between atoms: _139  and  _140
REMARK   61  A    between atoms: _143  and  _145
REMARK   62  A    between atoms: _145  and  _146
REMARK   63  A    between atoms: _148  and  _150
REMARK   64  A    between atoms: _150  and  _151
REMARK   65  A    between atoms: _153  and  _155
REMARK   66  A    between atoms: _155  and  _156
REMARK   67  A    between atoms: _155  and  _158
REMARK   68  A    between atoms: _158  and  _159
REMARK   69  A    between atoms: _162  and  _164
REMARK   70  A    between atoms: _164  and  _165
REMARK   71  A    between atoms: _164  and  _167
REMARK   72  A    between atoms: _167  and  _168
REMARK   73  A    between atoms: _172  and  _173
REMARK   74  A    between atoms: _178  and  _180
REMARK   75  A    between atoms: _180  and  _181
REMARK   76  A    between atoms: _180  and  _183
REMARK   77  A    between atoms: _183  and  _184
REMARK   78  A    between atoms: _188  and  _189
REMARK   79  A    between atoms: _194  and  _196
REMARK   80  A    between atoms: _196  and  _197
REMARK   81  A    between atoms: _196  and  _199
REMARK   82  A    between atoms: _202  and  _204
REMARK   83  A    between atoms: _204  and  _205
REMARK   84  A    between atoms: _204  and  _207
REMARK   85  A    between atoms: _207  and  _208
REMARK   86  A    between atoms: _213  and  _215
REMARK   87  A    between atoms: _215  and  _216
REMARK   88  A    between atoms: _215  and  _218
REMARK   89  A    between atoms: _218  and  _219
REMARK   90  A    between atoms: _222  and  _224
REMARK   91  A    between atoms: _224  and  _225
REMARK   92  A    between atoms: _224  and  _227
REMARK   93  A    between atoms: _227  and  _228
REMARK   94  A    between atoms: _231  and  _233
REMARK   95  A    between atoms: _233  and  _234
REMARK   96  A    between atoms: _236  and  _238
REMARK   97  A    between atoms: _238  and  _239
REMARK   98  A    between atoms: _238  and  _241
REMARK   99  A    between atoms: _241  and  _242
REMARK  100  A    between atoms: _242  and  _243
REMARK  101  A    between atoms: _243  and  _244
REMARK  102  A    between atoms: _253  and  _255
REMARK  103  A    between atoms: _255  and  _256
REMARK  104  A    between atoms: _255  and  _258
REMARK  105  A    between atoms: _258  and  _259
REMARK  106  A    between atoms: _262  and  _264
REMARK  107  A    between atoms: _264  and  _265
REMARK  108  A    between atoms: _264  and  _267
REMARK  109  A    between atoms: _267  and  _268
REMARK  110  A    between atoms: _268  and  _269
REMARK  111  A    between atoms: _269  and  _270
REMARK  112  A    between atoms: _279  and  _281
REMARK  113  A    between atoms: _281  and  _282
REMARK  114  A    between atoms: _281  and  _284
REMARK  115  A    between atoms: _284  and  _285
REMARK  116  A    between atoms: _288  and  _290
REMARK  117  A    between atoms: _290  and  _291
REMARK  118  A    between atoms: _290  and  _293
REMARK  119  A    between atoms: _293  and  _294
REMARK  120  A    between atoms: _297  and  _299
REMARK  121  A    between atoms: _299  and  _300
REMARK  122  A    between atoms: _299  and  _302
REMARK  123  A    between atoms: _302  and  _303
REMARK  124  A    between atoms: _306  and  _308
REMARK  125  A    between atoms: _308  and  _309
REMARK  126  A    between atoms: _308  and  _311
REMARK  127  A    between atoms: _311  and  _312
REMARK  128  A    between atoms: _315  and  _317
REMARK  129  A    between atoms: _317  and  _318
REMARK  130  A    between atoms: _317  and  _320
REMARK  131  A    between atoms: _320  and  _321
REMARK  132  A    between atoms: _324  and  _326
REMARK  133  A    between atoms: _326  and  _327
REMARK  134  A    between atoms: _329  and  _331
REMARK  135  A    between atoms: _331  and  _332
REMARK  136  A    between atoms: _335  and  _337
REMARK  137  A    between atoms: _337  and  _338
REMARK  138  A    between atoms: _337  and  _340
REMARK  139  A    between atoms: _340  and  _341
REMARK  140  A    between atoms: _344  and  _346
REMARK  141  A    between atoms: _346  and  _347
REMARK  142  A    between atoms: _346  and  _349
REMARK  143  A    between atoms: _349  and  _350
REMARK  144  A    between atoms: _355  and  _357
REMARK  145  A    between atoms: _357  and  _358
REMARK  146  A    between atoms: _357  and  _360
REMARK  147  A    between atoms: _360  and  _361
REMARK  148  A    between atoms: _364  and  _366
REMARK  149  A    between atoms: _366  and  _367
REMARK  150  A    between atoms: _366  and  _369
REMARK  151  A    between atoms: _372  and  _374
REMARK  152  A    between atoms: _374  and  _375
REMARK  153  A    between atoms: _374  and  _377
REMARK  154  A    between atoms: _377  and  _378
REMARK  155  A    between atoms: _381  and  _383
REMARK  156  A    between atoms: _383  and  _384
REMARK  157  A    between atoms: _383  and  _386
REMARK  158  A    between atoms: _386  and  _387
REMARK  159  A    between atoms: _387  and  _388
REMARK  160  A    between atoms: _388  and  _389
REMARK  161  A    between atoms: _389  and  _390
REMARK  162  A    between atoms: _394  and  _396
REMARK  163  A    between atoms: _396  and  _397
REMARK  164  A    between atoms: _396  and  _399
REMARK  165  A    between atoms: _399  and  _400
REMARK  166  A    between atoms: _400  and  _401
REMARK  167  A    between atoms: _403  and  _405
REMARK  168  A    between atoms: _405  and  _406
REMARK  169  A    between atoms: _405  and  _408
REMARK  170  A    between atoms: _408  and  _409
REMARK  171  A    between atoms: _412  and  _414
REMARK  172  A    between atoms: _414  and  _415
REMARK  173  A    between atoms: _417  and  _419
REMARK  174  A    between atoms: _419  and  _420
REMARK  175  A    between atoms: _422  and  _424
REMARK  176  A    between atoms: _424  and  _425
REMARK  177  A    between atoms: _424  and  _427
REMARK  178  A    between atoms: _427  and  _428
REMARK  179  A    between atoms: _431  and  _433
REMARK  180  A    between atoms: _433  and  _434
REMARK  181  A    between atoms: _436  and  _438
REMARK  182  A    between atoms: _438  and  _439
REMARK  183  A    between atoms: _441  and  _443
REMARK  184  A    between atoms: _443  and  _444
REMARK  185  A    between atoms: _443  and  _446
REMARK  186  A    between atoms: _446  and  _447
REMARK  187  A    between atoms: _453  and  _455
REMARK  188  A    between atoms: _455  and  _456
REMARK  189  A    between atoms: _455  and  _458
REMARK  190  A    between atoms: _458  and  _459
REMARK  191  A    between atoms: _462  and  _464
REMARK  192  A    between atoms: _464  and  _465
REMARK  193  A    between atoms: _464  and  _467
REMARK  194  A    between atoms: _470  and  _472
REMARK  195  A    between atoms: _472  and  _473
REMARK  196  A    between atoms: _472  and  _475
REMARK  197  A    between atoms: _475  and  _476
REMARK  198  A    between atoms: _479  and  _481
REMARK  199  A    between atoms: _481  and  _482
REMARK  200  A    between atoms: _481  and  _484
REMARK  201  A    between atoms: _484  and  _485
REMARK  202  A    between atoms: _489  and  _490
REMARK  203  A    between atoms: _495  and  _497
REMARK  204  A    between atoms: _497  and  _498
REMARK  205  A    between atoms: _497  and  _500
REMARK  206  A    between atoms: _503  and  _505
REMARK  207  A    between atoms: _505  and  _506
REMARK  208  A    between atoms: _505  and  _508
REMARK  209  A    between atoms: _508  and  _509
REMARK  210  A    between atoms: _514  and  _516
REMARK  211  A    between atoms: _516  and  _517
REMARK  212  A    between atoms: _516  and  _519
REMARK  213  A    between atoms: _519  and  _520
REMARK  214  A    between atoms: _523  and  _525
REMARK  215  A    between atoms: _525  and  _526
REMARK  216  A    between atoms: _525  and  _528
REMARK  217  A    between atoms: _528  and  _529
REMARK  218  A    between atoms: _532  and  _534
REMARK  219  A    between atoms: _534  and  _535
REMARK  220  A    between atoms: _537  and  _539
REMARK  221  A    between atoms: _539  and  _540
REMARK  222  A    between atoms: _539  and  _542
REMARK  223  A    between atoms: _542  and  _543
REMARK  224  A    between atoms: _543  and  _544
REMARK  225  A    between atoms: _544  and  _545
REMARK                            x       y       z     vdW  Elec       q    Type
REMARK                         _______ _______ _______ _____ _____    ______ ____
ROOT
ATOM      1  O   HOH     1      -6.035  21.565  14.648  0.00  0.00    +0.000 OA
ENDROOT
TORSDOF 0
REMARK  Name = ../refined-set-2016/2pym/2pym_pocket.pdb
REMARK  225 active torsions:
REMARK  status: ('A' for Active; 'I' for Inactive)
REMARK    1  A    between atoms: _1  and  _3
REMARK    2  A    between atoms: _3  and  _4
REMARK    3  A    between atoms: _3  and  _6
REMARK    4  A    between atoms: _6  and  _7
REMARK    5  A    between atoms: _7  and  _8
REMARK    6  A    between atoms: _8  and  _9
REMARK    7  A    between atoms: _18  and  _20
REMARK    8  A    between atoms: _20  and  _21
REMARK    9  A    between atoms: _20  and  _23
REMARK   10  A    between atoms: _23  and  _24
REMARK   11  A    between atoms: _27  and  _29
REMARK   12  A    between atoms: _29  and  _30
REMARK   13  A    between atoms: _29  and  _32
REMARK   14  A    between atoms: _32  and  _33
REMARK   15  A    between atoms: _36  and  _38
REMARK   16  A    between atoms: _38  and  _39
REMARK   17  A    between atoms: _38  and  _41
REMARK   18  A    between atoms: _41  and  _42
REMARK   19  A    between atoms: _45  and  _47
REMARK   20  A    between atoms: _47  and  _48
REMARK   21  A    between atoms: _47  and  _50
REMARK   22  A    between atoms: _50  and  _51
REMARK   23  A    between atoms: _54  and  _56
REMARK   24  A    between atoms: _56  and  _57
REMARK   25  A    between atoms: _59  and  _61
REMARK   26  A    between atoms: _61  and  _62
REMARK   27  A    between atoms: _65  and  _67
REMARK   28  A    between atoms: _67  and  _68
REMARK   29  A    between atoms: _67  and  _70
REMARK   30  A    between atoms: _70  and  _71
REMARK   31  A    between atoms: _74  and  _76
REMARK   32  A    between atoms: _76  and  _77
REMARK   33  A    between atoms: _76  and  _79
REMARK   34  A    between atoms: _79  and  _80
REMARK   35  A    between atoms: _85  and  _87
REMARK   36  A    between atoms: _87  and  _88
REMARK   37  A    between atoms: _87  and  _90
REMARK   38  A    between atoms: _90  and  _91
REMARK   39  A    between atoms: _94  and  _96
REMARK   40  A    between atoms: _96  and  _97
REMARK   41  A    between atoms: _96  and  _99
REMARK   42  A    between atoms: _102  and  _104
REMARK   43  A    between atoms: _104  and  _105
REMARK   44  A    between atoms: _104  and  _107
REMARK   45  A    between atoms: _107  and  _108
REMARK   46  A    between atoms: _108  and  _109
REMARK   47  A    between atoms: _109  and  _110
REMARK   48  A    between atoms: _110  and  _111
REMARK   49  A    between atoms: _115  and  _117
REMARK   50  A    between atoms: _117  and  _118
REMARK   51  A    between atoms: _117  and  _120
REMARK   52  A    between atoms: _120  and  _121
REMARK   53  A    between atoms: _124  and  _126
REMARK   54  A    between atoms: _126  and  _127
REMARK   55  A    between atoms: _129  and  _131
REMARK   56  A    between atoms: _131  and  _132
REMARK   57  A    between atoms: _134  and  _136
REMARK   58  A    between atoms: _136  and  _137
REMARK   59  A    between atoms: _136  and  _139
REMARK   60  A    between atoms: _139  and  _140
REMARK   61  A    between atoms: _143  and  _145
REMARK   62  A    between atoms: _145  and  _146
REMARK   63  A    between atoms: _148  and  _150
REMARK   64  A    between atoms: _150  and  _151
REMARK   65  A    between atoms: _153  and  _155
REMARK   66  A    between atoms: _155  and  _156
REMARK   67  A    between atoms: _155  and  _158
REMARK   68  A    between atoms: _158  and  _159
REMARK   69  A    between atoms: _162  and  _164
REMARK   70  A    between atoms: _164  and  _165
REMARK   71  A    between atoms: _164  and  _167
REMARK   72  A    between atoms: _167  and  _168
REMARK   73  A    between atoms: _172  and  _173
REMARK   74  A    between atoms: _178  and  _180
REMARK   75  A    between atoms: _180  and  _181
REMARK   76  A    between atoms: _180  and  _183
REMARK   77  A    between atoms: _183  and  _184
REMARK   78  A    between atoms: _188  and  _189
REMARK   79  A    between atoms: _194  and  _196
REMARK   80  A    between atoms: _196  and  _197
REMARK   81  A    between atoms: _196  and  _199
REMARK   82  A    between atoms: _202  and  _204
REMARK   83  A    between atoms: _204  and  _205
REMARK   84  A    between atoms: _204  and  _207
REMARK   85  A    between atoms: _207  and  _208
REMARK   86  A    between atoms: _213  and  _215
REMARK   87  A    between atoms: _215  and  _216
REMARK   88  A    between atoms: _215  and  _218
REMARK   89  A    between atoms: _218  and  _219
REMARK   90  A    between atoms: _222  and  _224
REMARK   91  A    between atoms: _224  and  _225
REMARK   92  A    between atoms: _224  and  _227
REMARK   93  A    between atoms: _227  and  _228
REMARK   94  A    between atoms: _231  and  _233
REMARK   95  A    between atoms: _233  and  _234
REMARK   96  A    between atoms: _236  and  _238
REMARK   97  A    between atoms: _238  and  _239
REMARK   98  A    between atoms: _238  and  _241
REMARK   99  A    between atoms: _241  and  _242
REMARK  100  A    between atoms: _242  and  _243
REMARK  101  A    between atoms: _243  and  _244
REMARK  102  A    between atoms: _253  and  _255
REMARK  103  A    between atoms: _255  and  _256
REMARK  104  A    between atoms: _255  and  _258
REMARK  105  A    between atoms: _258  and  _259
REMARK  106  A    between atoms: _262  and  _264
REMARK  107  A    between atoms: _264  and  _265
REMARK  108  A    between atoms: _264  and  _267
REMARK  109  A    between atoms: _267  and  _268
REMARK  110  A    between atoms: _268  and  _269
REMARK  111  A    between atoms: _269  and  _270
REMARK  112  A    between atoms: _279  and  _281
REMARK  113  A    between atoms: _281  and  _282
REMARK  114  A    between atoms: _281  and  _284
REMARK  115  A    between atoms: _284  and  _285
REMARK  116  A    between atoms: _288  and  _290
REMARK  117  A    between atoms: _290  and  _291
REMARK  118  A    between atoms: _290  and  _293
REMARK  119  A    between atoms: _293  and  _294
REMARK  120  A    between atoms: _297  and  _299
REMARK  121  A    between atoms: _299  and  _300
REMARK  122  A    between atoms: _299  and  _302
REMARK  123  A    between atoms: _302  and  _303
REMARK  124  A    between atoms: _306  and  _308
REMARK  125  A    between atoms: _308  and  _309
REMARK  126  A    between atoms: _308  and  _311
REMARK  127  A    between atoms: _311  and  _312
REMARK  128  A    between atoms: _315  and  _317
REMARK  129  A    between atoms: _317  and  _318
REMARK  130  A    between atoms: _317  and  _320
REMARK  131  A    between atoms: _320  and  _321
REMARK  132  A    between atoms: _324  and  _326
REMARK  133  A    between atoms: _326  and  _327
REMARK  134  A    between atoms: _329  and  _331
REMARK  135  A    between atoms: _331  and  _332
REMARK  136  A    between atoms: _335  and  _337
REMARK  137  A    between atoms: _337  and  _338
REMARK  138  A    between atoms: _337  and  _340
REMARK  139  A    between atoms: _340  and  _341
REMARK  140  A    between atoms: _344  and  _346
REMARK  141  A    between atoms: _346  and  _347
REMARK  142  A    between atoms: _346  and  _349
REMARK  143  A    between atoms: _349  and  _350
REMARK  144  A    between atoms: _355  and  _357
REMARK  145  A    between atoms: _357  and  _358
REMARK  146  A    between atoms: _357  and  _360
REMARK  147  A    between atoms: _360  and  _361
REMARK  148  A    between atoms: _364  and  _366
REMARK  149  A    between atoms: _366  and  _367
REMARK  150  A    between atoms: _366  and  _369
REMARK  151  A    between atoms: _372  and  _374
REMARK  152  A    between atoms: _374  and  _375
REMARK  153  A    between atoms: _374  and  _377
REMARK  154  A    between atoms: _377  and  _378
REMARK  155  A    between atoms: _381  and  _383
REMARK  156  A    between atoms: _383  and  _384
REMARK  157  A    between atoms: _383  and  _386
REMARK  158  A    between atoms: _386  and  _387
REMARK  159  A    between atoms: _387  and  _388
REMARK  160  A    between atoms: _388  and  _389
REMARK  161  A    between atoms: _389  and  _390
REMARK  162  A    between atoms: _394  and  _396
REMARK  163  A    between atoms: _396  and  _397
REMARK  164  A    between atoms: _396  and  _399
REMARK  165  A    between atoms: _399  and  _400
REMARK  166  A    between atoms: _400  and  _401
REMARK  167  A    between atoms: _403  and  _405
REMARK  168  A    between atoms: _405  and  _406
REMARK  169  A    between atoms: _405  and  _408
REMARK  170  A    between atoms: _408  and  _409
REMARK  171  A    between atoms: _412  and  _414
REMARK  172  A    between atoms: _414  and  _415
REMARK  173  A    between atoms: _417  and  _419
REMARK  174  A    between atoms: _419  and  _420
REMARK  175  A    between atoms: _422  and  _424
REMARK  176  A    between atoms: _424  and  _425
REMARK  177  A    between atoms: _424  and  _427
REMARK  178  A    between atoms: _427  and  _428
REMARK  179  A    between atoms: _431  and  _433
REMARK  180  A    between atoms: _433  and  _434
REMARK  181  A    between atoms: _436  and  _438
REMARK  182  A    between atoms: _438  and  _439
REMARK  183  A    between atoms: _441  and  _443
REMARK  184  A    between atoms: _443  and  _444
REMARK  185  A    between atoms: _443  and  _446
REMARK  186  A    between atoms: _446  and  _447
REMARK  187  A    between atoms: _453  and  _455
REMARK  188  A    between atoms: _455  and  _456
REMARK  189  A    between atoms: _455  and  _458
REMARK  190  A    between atoms: _458  and  _459
REMARK  191  A    between atoms: _462  and  _464
REMARK  192  A    between atoms: _464  and  _465
REMARK  193  A    between atoms: _464  and  _467
REMARK  194  A    between atoms: _470  and  _472
REMARK  195  A    between atoms: _472  and  _473
REMARK  196  A    between atoms: _472  and  _475
REMARK  197  A    between atoms: _475  and  _476
REMARK  198  A    between atoms: _479  and  _481
REMARK  199  A    between atoms: _481  and  _482
REMARK  200  A    between atoms: _481  and  _484
REMARK  201  A    between atoms: _484  and  _485
REMARK  202  A    between atoms: _489  and  _490
REMARK  203  A    between atoms: _495  and  _497
REMARK  204  A    between atoms: _497  and  _498
REMARK  205  A    between atoms: _497  and  _500
REMARK  206  A    between atoms: _503  and  _505
REMARK  207  A    between atoms: _505  and  _506
REMARK  208  A    between atoms: _505  and  _508
REMARK  209  A    between atoms: _508  and  _509
REMARK  210  A    between atoms: _514  and  _516
REMARK  211  A    between atoms: _516  and  _517
REMARK  212  A    between atoms: _516  and  _519
REMARK  213  A    between atoms: _519  and  _520
REMARK  214  A    between atoms: _523  and  _525
REMARK  215  A    between atoms: _525  and  _526
REMARK  216  A    between atoms: _525  and  _528
REMARK  217  A    between atoms: _528  and  _529
REMARK  218  A    between atoms: _532  and  _534
REMARK  219  A    between atoms: _534  and  _535
REMARK  220  A    between atoms: _537  and  _539
REMARK  221  A    between atoms: _539  and  _540
REMARK  222  A    between atoms: _539  and  _542
REMARK  223  A    between atoms: _542  and  _543
REMARK  224  A    between atoms: _543  and  _544
REMARK  225  A    between atoms: _544  and  _545
REMARK                            x       y       z     vdW  Elec       q    Type
REMARK                         _______ _______ _______ _____ _____    ______ ____
ROOT
ATOM      1  O   HOH     1      -4.194  18.001  17.245  0.00  0.00    +0.000 OA
ENDROOT
TORSDOF 0
REMARK  Name = ../refined-set-2016/2pym/2pym_pocket.pdb
REMARK  225 active torsions:
REMARK  status: ('A' for Active; 'I' for Inactive)
REMARK    1  A    between atoms: _1  and  _3
REMARK    2  A    between atoms: _3  and  _4
REMARK    3  A    between atoms: _3  and  _6
REMARK    4  A    between atoms: _6  and  _7
REMARK    5  A    between atoms: _7  and  _8
REMARK    6  A    between atoms: _8  and  _9
REMARK    7  A    between atoms: _18  and  _20
REMARK    8  A    between atoms: _20  and  _21
REMARK    9  A    between atoms: _20  and  _23
REMARK   10  A    between atoms: _23  and  _24
REMARK   11  A    between atoms: _27  and  _29
REMARK   12  A    between atoms: _29  and  _30
REMARK   13  A    between atoms: _29  and  _32
REMARK   14  A    between atoms: _32  and  _33
REMARK   15  A    between atoms: _36  and  _38
REMARK   16  A    between atoms: _38  and  _39
REMARK   17  A    between atoms: _38  and  _41
REMARK   18  A    between atoms: _41  and  _42
REMARK   19  A    between atoms: _45  and  _47
REMARK   20  A    between atoms: _47  and  _48
REMARK   21  A    between atoms: _47  and  _50
REMARK   22  A    between atoms: _50  and  _51
REMARK   23  A    between atoms: _54  and  _56
REMARK   24  A    between atoms: _56  and  _57
REMARK   25  A    between atoms: _59  and  _61
REMARK   26  A    between atoms: _61  and  _62
REMARK   27  A    between atoms: _65  and  _67
REMARK   28  A    between atoms: _67  and  _68
REMARK   29  A    between atoms: _67  and  _70
REMARK   30  A    between atoms: _70  and  _71
REMARK   31  A    between atoms: _74  and  _76
REMARK   32  A    between atoms: _76  and  _77
REMARK   33  A    between atoms: _76  and  _79
REMARK   34  A    between atoms: _79  and  _80
REMARK   35  A    between atoms: _85  and  _87
REMARK   36  A    between atoms: _87  and  _88
REMARK   37  A    between atoms: _87  and  _90
REMARK   38  A    between atoms: _90  and  _91
REMARK   39  A    between atoms: _94  and  _96
REMARK   40  A    between atoms: _96  and  _97
REMARK   41  A    between atoms: _96  and  _99
REMARK   42  A    between atoms: _102  and  _104
REMARK   43  A    between atoms: _104  and  _105
REMARK   44  A    between atoms: _104  and  _107
REMARK   45  A    between atoms: _107  and  _108
REMARK   46  A    between atoms: _108  and  _109
REMARK   47  A    between atoms: _109  and  _110
REMARK   48  A    between atoms: _110  and  _111
REMARK   49  A    between atoms: _115  and  _117
REMARK   50  A    between atoms: _117  and  _118
REMARK   51  A    between atoms: _117  and  _120
REMARK   52  A    between atoms: _120  and  _121
REMARK   53  A    between atoms: _124  and  _126
REMARK   54  A    between atoms: _126  and  _127
REMARK   55  A    between atoms: _129  and  _131
REMARK   56  A    between atoms: _131  and  _132
REMARK   57  A    between atoms: _134  and  _136
REMARK   58  A    between atoms: _136  and  _137
REMARK   59  A    between atoms: _136  and  _139
REMARK   60  A    between atoms: _139  and  _140
REMARK   61  A    between atoms: _143  and  _145
REMARK   62  A    between atoms: _145  and  _146
REMARK   63  A    between atoms: _148  and  _150
REMARK   64  A    between atoms: _150  and  _151
REMARK   65  A    between atoms: _153  and  _155
REMARK   66  A    between atoms: _155  and  _156
REMARK   67  A    between atoms: _155  and  _158
REMARK   68  A    between atoms: _158  and  _159
REMARK   69  A    between atoms: _162  and  _164
REMARK   70  A    between atoms: _164  and  _165
REMARK   71  A    between atoms: _164  and  _167
REMARK   72  A    between atoms: _167  and  _168
REMARK   73  A    between atoms: _172  and  _173
REMARK   74  A    between atoms: _178  and  _180
REMARK   75  A    between atoms: _180  and  _181
REMARK   76  A    between atoms: _180  and  _183
REMARK   77  A    between atoms: _183  and  _184
REMARK   78  A    between atoms: _188  and  _189
REMARK   79  A    between atoms: _194  and  _196
REMARK   80  A    between atoms: _196  and  _197
REMARK   81  A    between atoms: _196  and  _199
REMARK   82  A    between atoms: _202  and  _204
REMARK   83  A    between atoms: _204  and  _205
REMARK   84  A    between atoms: _204  and  _207
REMARK   85  A    between atoms: _207  and  _208
REMARK   86  A    between atoms: _213  and  _215
REMARK   87  A    between atoms: _215  and  _216
REMARK   88  A    between atoms: _215  and  _218
REMARK   89  A    between atoms: _218  and  _219
REMARK   90  A    between atoms: _222  and  _224
REMARK   91  A    between atoms: _224  and  _225
REMARK   92  A    between atoms: _224  and  _227
REMARK   93  A    between atoms: _227  and  _228
REMARK   94  A    between atoms: _231  and  _233
REMARK   95  A    between atoms: _233  and  _234
REMARK   96  A    between atoms: _236  and  _238
REMARK   97  A    between atoms: _238  and  _239
REMARK   98  A    between atoms: _238  and  _241
REMARK   99  A    between atoms: _241  and  _242
REMARK  100  A    between atoms: _242  and  _243
REMARK  101  A    between atoms: _243  and  _244
REMARK  102  A    between atoms: _253  and  _255
REMARK  103  A    between atoms: _255  and  _256
REMARK  104  A    between atoms: _255  and  _258
REMARK  105  A    between atoms: _258  and  _259
REMARK  106  A    between atoms: _262  and  _264
REMARK  107  A    between atoms: _264  and  _265
REMARK  108  A    between atoms: _264  and  _267
REMARK  109  A    between atoms: _267  and  _268
REMARK  110  A    between atoms: _268  and  _269
REMARK  111  A    between atoms: _269  and  _270
REMARK  112  A    between atoms: _279  and  _281
REMARK  113  A    between atoms: _281  and  _282
REMARK  114  A    between atoms: _281  and  _284
REMARK  115  A    between atoms: _284  and  _285
REMARK  116  A    between atoms: _288  and  _290
REMARK  117  A    between atoms: _290  and  _291
REMARK  118  A    between atoms: _290  and  _293
REMARK  119  A    between atoms: _293  and  _294
REMARK  120  A    between atoms: _297  and  _299
REMARK  121  A    between atoms: _299  and  _300
REMARK  122  A    between atoms: _299  and  _302
REMARK  123  A    between atoms: _302  and  _303
REMARK  124  A    between atoms: _306  and  _308
REMARK  125  A    between atoms: _308  and  _309
REMARK  126  A    between atoms: _308  and  _311
REMARK  127  A    between atoms: _311  and  _312
REMARK  128  A    between atoms: _315  and  _317
REMARK  129  A    between atoms: _317  and  _318
REMARK  130  A    between atoms: _317  and  _320
REMARK  131  A    between atoms: _320  and  _321
REMARK  132  A    between atoms: _324  and  _326
REMARK  133  A    between atoms: _326  and  _327
REMARK  134  A    between atoms: _329  and  _331
REMARK  135  A    between atoms: _331  and  _332
REMARK  136  A    between atoms: _335  and  _337
REMARK  137  A    between atoms: _337  and  _338
REMARK  138  A    between atoms: _337  and  _340
REMARK  139  A    between atoms: _340  and  _341
REMARK  140  A    between atoms: _344  and  _346
REMARK  141  A    between atoms: _346  and  _347
REMARK  142  A    between atoms: _346  and  _349
REMARK  143  A    between atoms: _349  and  _350
REMARK  144  A    between atoms: _355  and  _357
REMARK  145  A    between atoms: _357  and  _358
REMARK  146  A    between atoms: _357  and  _360
REMARK  147  A    between atoms: _360  and  _361
REMARK  148  A    between atoms: _364  and  _366
REMARK  149  A    between atoms: _366  and  _367
REMARK  150  A    between atoms: _366  and  _369
REMARK  151  A    between atoms: _372  and  _374
REMARK  152  A    between atoms: _374  and  _375
REMARK  153  A    between atoms: _374  and  _377
REMARK  154  A    between atoms: _377  and  _378
REMARK  155  A    between atoms: _381  and  _383
REMARK  156  A    between atoms: _383  and  _384
REMARK  157  A    between atoms: _383  and  _386
REMARK  158  A    between atoms: _386  and  _387
REMARK  159  A    between atoms: _387  and  _388
REMARK  160  A    between atoms: _388  and  _389
REMARK  161  A    between atoms: _389  and  _390
REMARK  162  A    between atoms: _394  and  _396
REMARK  163  A    between atoms: _396  and  _397
REMARK  164  A    between atoms: _396  and  _399
REMARK  165  A    between atoms: _399  and  _400
REMARK  166  A    between atoms: _400  and  _401
REMARK  167  A    between atoms: _403  and  _405
REMARK  168  A    between atoms: _405  and  _406
REMARK  169  A    between atoms: _405  and  _408
REMARK  170  A    between atoms: _408  and  _409
REMARK  171  A    between atoms: _412  and  _414
REMARK  172  A    between atoms: _414  and  _415
REMARK  173  A    between atoms: _417  and  _419
REMARK  174  A    between atoms: _419  and  _420
REMARK  175  A    between atoms: _422  and  _424
REMARK  176  A    between atoms: _424  and  _425
REMARK  177  A    between atoms: _424  and  _427
REMARK  178  A    between atoms: _427  and  _428
REMARK  179  A    between atoms: _431  and  _433
REMARK  180  A    between atoms: _433  and  _434
REMARK  181  A    between atoms: _436  and  _438
REMARK  182  A    between atoms: _438  and  _439
REMARK  183  A    between atoms: _441  and  _443
REMARK  184  A    between atoms: _443  and  _444
REMARK  185  A    between atoms: _443  and  _446
REMARK  186  A    between atoms: _446  and  _447
REMARK  187  A    between atoms: _453  and  _455
REMARK  188  A    between atoms: _455  and  _456
REMARK  189  A    between atoms: _455  and  _458
REMARK  190  A    between atoms: _458  and  _459
REMARK  191  A    between atoms: _462  and  _464
REMARK  192  A    between atoms: _464  and  _465
REMARK  193  A    between atoms: _464  and  _467
REMARK  194  A    between atoms: _470  and  _472
REMARK  195  A    between atoms: _472  and  _473
REMARK  196  A    between atoms: _472  and  _475
REMARK  197  A    between atoms: _475  and  _476
REMARK  198  A    between atoms: _479  and  _481
REMARK  199  A    between atoms: _481  and  _482
REMARK  200  A    between atoms: _481  and  _484
REMARK  201  A    between atoms: _484  and  _485
REMARK  202  A    between atoms: _489  and  _490
REMARK  203  A    between atoms: _495  and  _497
REMARK  204  A    between atoms: _497  and  _498
REMARK  205  A    between atoms: _497  and  _500
REMARK  206  A    between atoms: _503  and  _505
REMARK  207  A    between atoms: _505  and  _506
REMARK  208  A    between atoms: _505  and  _508
REMARK  209  A    between atoms: _508  and  _509
REMARK  210  A    between atoms: _514  and  _516
REMARK  211  A    between atoms: _516  and  _517
REMARK  212  A    between atoms: _516  and  _519
REMARK  213  A    between atoms: _519  and  _520
REMARK  214  A    between atoms: _523  and  _525
REMARK  215  A    between atoms: _525  and  _526
REMARK  216  A    between atoms: _525  and  _528
REMARK  217  A    between atoms: _528  and  _529
REMARK  218  A    between atoms: _532  and  _534
REMARK  219  A    between atoms: _534  and  _535
REMARK  220  A    between atoms: _537  and  _539
REMARK  221  A    between atoms: _539  and  _540
REMARK  222  A    between atoms: _539  and  _542
REMARK  223  A    between atoms: _542  and  _543
REMARK  224  A    between atoms: _543  and  _544
REMARK  225  A    between atoms: _544  and  _545
REMARK                            x       y       z     vdW  Elec       q    Type
REMARK                         _______ _______ _______ _____ _____    ______ ____
ROOT
ATOM      1  O   HOH     1     -10.326   3.483  24.506  0.00  0.00    +0.000 OA
ENDROOT
TORSDOF 0
REMARK  Name = ../refined-set-2016/2pym/2pym_pocket.pdb
REMARK  225 active torsions:
REMARK  status: ('A' for Active; 'I' for Inactive)
REMARK    1  A    between atoms: _1  and  _3
REMARK    2  A    between atoms: _3  and  _4
REMARK    3  A    between atoms: _3  and  _6
REMARK    4  A    between atoms: _6  and  _7
REMARK    5  A    between atoms: _7  and  _8
REMARK    6  A    between atoms: _8  and  _9
REMARK    7  A    between atoms: _18  and  _20
REMARK    8  A    between atoms: _20  and  _21
REMARK    9  A    between atoms: _20  and  _23
REMARK   10  A    between atoms: _23  and  _24
REMARK   11  A    between atoms: _27  and  _29
REMARK   12  A    between atoms: _29  and  _30
REMARK   13  A    between atoms: _29  and  _32
REMARK   14  A    between atoms: _32  and  _33
REMARK   15  A    between atoms: _36  and  _38
REMARK   16  A    between atoms: _38  and  _39
REMARK   17  A    between atoms: _38  and  _41
REMARK   18  A    between atoms: _41  and  _42
REMARK   19  A    between atoms: _45  and  _47
REMARK   20  A    between atoms: _47  and  _48
REMARK   21  A    between atoms: _47  and  _50
REMARK   22  A    between atoms: _50  and  _51
REMARK   23  A    between atoms: _54  and  _56
REMARK   24  A    between atoms: _56  and  _57
REMARK   25  A    between atoms: _59  and  _61
REMARK   26  A    between atoms: _61  and  _62
REMARK   27  A    between atoms: _65  and  _67
REMARK   28  A    between atoms: _67  and  _68
REMARK   29  A    between atoms: _67  and  _70
REMARK   30  A    between atoms: _70  and  _71
REMARK   31  A    between atoms: _74  and  _76
REMARK   32  A    between atoms: _76  and  _77
REMARK   33  A    between atoms: _76  and  _79
REMARK   34  A    between atoms: _79  and  _80
REMARK   35  A    between atoms: _85  and  _87
REMARK   36  A    between atoms: _87  and  _88
REMARK   37  A    between atoms: _87  and  _90
REMARK   38  A    between atoms: _90  and  _91
REMARK   39  A    between atoms: _94  and  _96
REMARK   40  A    between atoms: _96  and  _97
REMARK   41  A    between atoms: _96  and  _99
REMARK   42  A    between atoms: _102  and  _104
REMARK   43  A    between atoms: _104  and  _105
REMARK   44  A    between atoms: _104  and  _107
REMARK   45  A    between atoms: _107  and  _108
REMARK   46  A    between atoms: _108  and  _109
REMARK   47  A    between atoms: _109  and  _110
REMARK   48  A    between atoms: _110  and  _111
REMARK   49  A    between atoms: _115  and  _117
REMARK   50  A    between atoms: _117  and  _118
REMARK   51  A    between atoms: _117  and  _120
REMARK   52  A    between atoms: _120  and  _121
REMARK   53  A    between atoms: _124  and  _126
REMARK   54  A    between atoms: _126  and  _127
REMARK   55  A    between atoms: _129  and  _131
REMARK   56  A    between atoms: _131  and  _132
REMARK   57  A    between atoms: _134  and  _136
REMARK   58  A    between atoms: _136  and  _137
REMARK   59  A    between atoms: _136  and  _139
REMARK   60  A    between atoms: _139  and  _140
REMARK   61  A    between atoms: _143  and  _145
REMARK   62  A    between atoms: _145  and  _146
REMARK   63  A    between atoms: _148  and  _150
REMARK   64  A    between atoms: _150  and  _151
REMARK   65  A    between atoms: _153  and  _155
REMARK   66  A    between atoms: _155  and  _156
REMARK   67  A    between atoms: _155  and  _158
REMARK   68  A    between atoms: _158  and  _159
REMARK   69  A    between atoms: _162  and  _164
REMARK   70  A    between atoms: _164  and  _165
REMARK   71  A    between atoms: _164  and  _167
REMARK   72  A    between atoms: _167  and  _168
REMARK   73  A    between atoms: _172  and  _173
REMARK   74  A    between atoms: _178  and  _180
REMARK   75  A    between atoms: _180  and  _181
REMARK   76  A    between atoms: _180  and  _183
REMARK   77  A    between atoms: _183  and  _184
REMARK   78  A    between atoms: _188  and  _189
REMARK   79  A    between atoms: _194  and  _196
REMARK   80  A    between atoms: _196  and  _197
REMARK   81  A    between atoms: _196  and  _199
REMARK   82  A    between atoms: _202  and  _204
REMARK   83  A    between atoms: _204  and  _205
REMARK   84  A    between atoms: _204  and  _207
REMARK   85  A    between atoms: _207  and  _208
REMARK   86  A    between atoms: _213  and  _215
REMARK   87  A    between atoms: _215  and  _216
REMARK   88  A    between atoms: _215  and  _218
REMARK   89  A    between atoms: _218  and  _219
REMARK   90  A    between atoms: _222  and  _224
REMARK   91  A    between atoms: _224  and  _225
REMARK   92  A    between atoms: _224  and  _227
REMARK   93  A    between atoms: _227  and  _228
REMARK   94  A    between atoms: _231  and  _233
REMARK   95  A    between atoms: _233  and  _234
REMARK   96  A    between atoms: _236  and  _238
REMARK   97  A    between atoms: _238  and  _239
REMARK   98  A    between atoms: _238  and  _241
REMARK   99  A    between atoms: _241  and  _242
REMARK  100  A    between atoms: _242  and  _243
REMARK  101  A    between atoms: _243  and  _244
REMARK  102  A    between atoms: _253  and  _255
REMARK  103  A    between atoms: _255  and  _256
REMARK  104  A    between atoms: _255  and  _258
REMARK  105  A    between atoms: _258  and  _259
REMARK  106  A    between atoms: _262  and  _264
REMARK  107  A    between atoms: _264  and  _265
REMARK  108  A    between atoms: _264  and  _267
REMARK  109  A    between atoms: _267  and  _268
REMARK  110  A    between atoms: _268  and  _269
REMARK  111  A    between atoms: _269  and  _270
REMARK  112  A    between atoms: _279  and  _281
REMARK  113  A    between atoms: _281  and  _282
REMARK  114  A    between atoms: _281  and  _284
REMARK  115  A    between atoms: _284  and  _285
REMARK  116  A    between atoms: _288  and  _290
REMARK  117  A    between atoms: _290  and  _291
REMARK  118  A    between atoms: _290  and  _293
REMARK  119  A    between atoms: _293  and  _294
REMARK  120  A    between atoms: _297  and  _299
REMARK  121  A    between atoms: _299  and  _300
REMARK  122  A    between atoms: _299  and  _302
REMARK  123  A    between atoms: _302  and  _303
REMARK  124  A    between atoms: _306  and  _308
REMARK  125  A    between atoms: _308  and  _309
REMARK  126  A    between atoms: _308  and  _311
REMARK  127  A    between atoms: _311  and  _312
REMARK  128  A    between atoms: _315  and  _317
REMARK  129  A    between atoms: _317  and  _318
REMARK  130  A    between atoms: _317  and  _320
REMARK  131  A    between atoms: _320  and  _321
REMARK  132  A    between atoms: _324  and  _326
REMARK  133  A    between atoms: _326  and  _327
REMARK  134  A    between atoms: _329  and  _331
REMARK  135  A    between atoms: _331  and  _332
REMARK  136  A    between atoms: _335  and  _337
REMARK  137  A    between atoms: _337  and  _338
REMARK  138  A    between atoms: _337  and  _340
REMARK  139  A    between atoms: _340  and  _341
REMARK  140  A    between atoms: _344  and  _346
REMARK  141  A    between atoms: _346  and  _347
REMARK  142  A    between atoms: _346  and  _349
REMARK  143  A    between atoms: _349  and  _350
REMARK  144  A    between atoms: _355  and  _357
REMARK  145  A    between atoms: _357  and  _358
REMARK  146  A    between atoms: _357  and  _360
REMARK  147  A    between atoms: _360  and  _361
REMARK  148  A    between atoms: _364  and  _366
REMARK  149  A    between atoms: _366  and  _367
REMARK  150  A    between atoms: _366  and  _369
REMARK  151  A    between atoms: _372  and  _374
REMARK  152  A    between atoms: _374  and  _375
REMARK  153  A    between atoms: _374  and  _377
REMARK  154  A    between atoms: _377  and  _378
REMARK  155  A    between atoms: _381  and  _383
REMARK  156  A    between atoms: _383  and  _384
REMARK  157  A    between atoms: _383  and  _386
REMARK  158  A    between atoms: _386  and  _387
REMARK  159  A    between atoms: _387  and  _388
REMARK  160  A    between atoms: _388  and  _389
REMARK  161  A    between atoms: _389  and  _390
REMARK  162  A    between atoms: _394  and  _396
REMARK  163  A    between atoms: _396  and  _397
REMARK  164  A    between atoms: _396  and  _399
REMARK  165  A    between atoms: _399  and  _400
REMARK  166  A    between atoms: _400  and  _401
REMARK  167  A    between atoms: _403  and  _405
REMARK  168  A    between atoms: _405  and  _406
REMARK  169  A    between atoms: _405  and  _408
REMARK  170  A    between atoms: _408  and  _409
REMARK  171  A    between atoms: _412  and  _414
REMARK  172  A    between atoms: _414  and  _415
REMARK  173  A    between atoms: _417  and  _419
REMARK  174  A    between atoms: _419  and  _420
REMARK  175  A    between atoms: _422  and  _424
REMARK  176  A    between atoms: _424  and  _425
REMARK  177  A    between atoms: _424  and  _427
REMARK  178  A    between atoms: _427  and  _428
REMARK  179  A    between atoms: _431  and  _433
REMARK  180  A    between atoms: _433  and  _434
REMARK  181  A    between atoms: _436  and  _438
REMARK  182  A    between atoms: _438  and  _439
REMARK  183  A    between atoms: _441  and  _443
REMARK  184  A    between atoms: _443  and  _444
REMARK  185  A    between atoms: _443  and  _446
REMARK  186  A    between atoms: _446  and  _447
REMARK  187  A    between atoms: _453  and  _455
REMARK  188  A    between atoms: _455  and  _456
REMARK  189  A    between atoms: _455  and  _458
REMARK  190  A    between atoms: _458  and  _459
REMARK  191  A    between atoms: _462  and  _464
REMARK  192  A    between atoms: _464  and  _465
REMARK  193  A    between atoms: _464  and  _467
REMARK  194  A    between atoms: _470  and  _472
REMARK  195  A    between atoms: _472  and  _473
REMARK  196  A    between atoms: _472  and  _475
REMARK  197  A    between atoms: _475  and  _476
REMARK  198  A    between atoms: _479  and  _481
REMARK  199  A    between atoms: _481  and  _482
REMARK  200  A    between atoms: _481  and  _484
REMARK  201  A    between atoms: _484  and  _485
REMARK  202  A    between atoms: _489  and  _490
REMARK  203  A    between atoms: _495  and  _497
REMARK  204  A    between atoms: _497  and  _498
REMARK  205  A    between atoms: _497  and  _500
REMARK  206  A    between atoms: _503  and  _505
REMARK  207  A    between atoms: _505  and  _506
REMARK  208  A    between atoms: _505  and  _508
REMARK  209  A    between atoms: _508  and  _509
REMARK  210  A    between atoms: _514  and  _516
REMARK  211  A    between atoms: _516  and  _517
REMARK  212  A    between atoms: _516  and  _519
REMARK  213  A    between atoms: _519  and  _520
REMARK  214  A    between atoms: _523  and  _525
REMARK  215  A    between atoms: _525  and  _526
REMARK  216  A    between atoms: _525  and  _528
REMARK  217  A    between atoms: _528  and  _529
REMARK  218  A    between atoms: _532  and  _534
REMARK  219  A    between atoms: _534  and  _535
REMARK  220  A    between atoms: _537  and  _539
REMARK  221  A    between atoms: _539  and  _540
REMARK  222  A    between atoms: _539  and  _542
REMARK  223  A    between atoms: _542  and  _543
REMARK  224  A    between atoms: _543  and  _544
REMARK  225  A    between atoms: _544  and  _545
REMARK                            x       y       z     vdW  Elec       q    Type
REMARK                         _______ _______ _______ _____ _____    ______ ____
ROOT
ATOM      1  O   HOH     1     -20.426   8.996  28.455  0.00  0.00    +0.000 OA
ENDROOT
TORSDOF 0
REMARK  Name = ../refined-set-2016/2pym/2pym_pocket.pdb
REMARK  225 active torsions:
REMARK  status: ('A' for Active; 'I' for Inactive)
REMARK    1  A    between atoms: _1  and  _3
REMARK    2  A    between atoms: _3  and  _4
REMARK    3  A    between atoms: _3  and  _6
REMARK    4  A    between atoms: _6  and  _7
REMARK    5  A    between atoms: _7  and  _8
REMARK    6  A    between atoms: _8  and  _9
REMARK    7  A    between atoms: _18  and  _20
REMARK    8  A    between atoms: _20  and  _21
REMARK    9  A    between atoms: _20  and  _23
REMARK   10  A    between atoms: _23  and  _24
REMARK   11  A    between atoms: _27  and  _29
REMARK   12  A    between atoms: _29  and  _30
REMARK   13  A    between atoms: _29  and  _32
REMARK   14  A    between atoms: _32  and  _33
REMARK   15  A    between atoms: _36  and  _38
REMARK   16  A    between atoms: _38  and  _39
REMARK   17  A    between atoms: _38  and  _41
REMARK   18  A    between atoms: _41  and  _42
REMARK   19  A    between atoms: _45  and  _47
REMARK   20  A    between atoms: _47  and  _48
REMARK   21  A    between atoms: _47  and  _50
REMARK   22  A    between atoms: _50  and  _51
REMARK   23  A    between atoms: _54  and  _56
REMARK   24  A    between atoms: _56  and  _57
REMARK   25  A    between atoms: _59  and  _61
REMARK   26  A    between atoms: _61  and  _62
REMARK   27  A    between atoms: _65  and  _67
REMARK   28  A    between atoms: _67  and  _68
REMARK   29  A    between atoms: _67  and  _70
REMARK   30  A    between atoms: _70  and  _71
REMARK   31  A    between atoms: _74  and  _76
REMARK   32  A    between atoms: _76  and  _77
REMARK   33  A    between atoms: _76  and  _79
REMARK   34  A    between atoms: _79  and  _80
REMARK   35  A    between atoms: _85  and  _87
REMARK   36  A    between atoms: _87  and  _88
REMARK   37  A    between atoms: _87  and  _90
REMARK   38  A    between atoms: _90  and  _91
REMARK   39  A    between atoms: _94  and  _96
REMARK   40  A    between atoms: _96  and  _97
REMARK   41  A    between atoms: _96  and  _99
REMARK   42  A    between atoms: _102  and  _104
REMARK   43  A    between atoms: _104  and  _105
REMARK   44  A    between atoms: _104  and  _107
REMARK   45  A    between atoms: _107  and  _108
REMARK   46  A    between atoms: _108  and  _109
REMARK   47  A    between atoms: _109  and  _110
REMARK   48  A    between atoms: _110  and  _111
REMARK   49  A    between atoms: _115  and  _117
REMARK   50  A    between atoms: _117  and  _118
REMARK   51  A    between atoms: _117  and  _120
REMARK   52  A    between atoms: _120  and  _121
REMARK   53  A    between atoms: _124  and  _126
REMARK   54  A    between atoms: _126  and  _127
REMARK   55  A    between atoms: _129  and  _131
REMARK   56  A    between atoms: _131  and  _132
REMARK   57  A    between atoms: _134  and  _136
REMARK   58  A    between atoms: _136  and  _137
REMARK   59  A    between atoms: _136  and  _139
REMARK   60  A    between atoms: _139  and  _140
REMARK   61  A    between atoms: _143  and  _145
REMARK   62  A    between atoms: _145  and  _146
REMARK   63  A    between atoms: _148  and  _150
REMARK   64  A    between atoms: _150  and  _151
REMARK   65  A    between atoms: _153  and  _155
REMARK   66  A    between atoms: _155  and  _156
REMARK   67  A    between atoms: _155  and  _158
REMARK   68  A    between atoms: _158  and  _159
REMARK   69  A    between atoms: _162  and  _164
REMARK   70  A    between atoms: _164  and  _165
REMARK   71  A    between atoms: _164  and  _167
REMARK   72  A    between atoms: _167  and  _168
REMARK   73  A    between atoms: _172  and  _173
REMARK   74  A    between atoms: _178  and  _180
REMARK   75  A    between atoms: _180  and  _181
REMARK   76  A    between atoms: _180  and  _183
REMARK   77  A    between atoms: _183  and  _184
REMARK   78  A    between atoms: _188  and  _189
REMARK   79  A    between atoms: _194  and  _196
REMARK   80  A    between atoms: _196  and  _197
REMARK   81  A    between atoms: _196  and  _199
REMARK   82  A    between atoms: _202  and  _204
REMARK   83  A    between atoms: _204  and  _205
REMARK   84  A    between atoms: _204  and  _207
REMARK   85  A    between atoms: _207  and  _208
REMARK   86  A    between atoms: _213  and  _215
REMARK   87  A    between atoms: _215  and  _216
REMARK   88  A    between atoms: _215  and  _218
REMARK   89  A    between atoms: _218  and  _219
REMARK   90  A    between atoms: _222  and  _224
REMARK   91  A    between atoms: _224  and  _225
REMARK   92  A    between atoms: _224  and  _227
REMARK   93  A    between atoms: _227  and  _228
REMARK   94  A    between atoms: _231  and  _233
REMARK   95  A    between atoms: _233  and  _234
REMARK   96  A    between atoms: _236  and  _238
REMARK   97  A    between atoms: _238  and  _239
REMARK   98  A    between atoms: _238  and  _241
REMARK   99  A    between atoms: _241  and  _242
REMARK  100  A    between atoms: _242  and  _243
REMARK  101  A    between atoms: _243  and  _244
REMARK  102  A    between atoms: _253  and  _255
REMARK  103  A    between atoms: _255  and  _256
REMARK  104  A    between atoms: _255  and  _258
REMARK  105  A    between atoms: _258  and  _259
REMARK  106  A    between atoms: _262  and  _264
REMARK  107  A    between atoms: _264  and  _265
REMARK  108  A    between atoms: _264  and  _267
REMARK  109  A    between atoms: _267  and  _268
REMARK  110  A    between atoms: _268  and  _269
REMARK  111  A    between atoms: _269  and  _270
REMARK  112  A    between atoms: _279  and  _281
REMARK  113  A    between atoms: _281  and  _282
REMARK  114  A    between atoms: _281  and  _284
REMARK  115  A    between atoms: _284  and  _285
REMARK  116  A    between atoms: _288  and  _290
REMARK  117  A    between atoms: _290  and  _291
REMARK  118  A    between atoms: _290  and  _293
REMARK  119  A    between atoms: _293  and  _294
REMARK  120  A    between atoms: _297  and  _299
REMARK  121  A    between atoms: _299  and  _300
REMARK  122  A    between atoms: _299  and  _302
REMARK  123  A    between atoms: _302  and  _303
REMARK  124  A    between atoms: _306  and  _308
REMARK  125  A    between atoms: _308  and  _309
REMARK  126  A    between atoms: _308  and  _311
REMARK  127  A    between atoms: _311  and  _312
REMARK  128  A    between atoms: _315  and  _317
REMARK  129  A    between atoms: _317  and  _318
REMARK  130  A    between atoms: _317  and  _320
REMARK  131  A    between atoms: _320  and  _321
REMARK  132  A    between atoms: _324  and  _326
REMARK  133  A    between atoms: _326  and  _327
REMARK  134  A    between atoms: _329  and  _331
REMARK  135  A    between atoms: _331  and  _332
REMARK  136  A    between atoms: _335  and  _337
REMARK  137  A    between atoms: _337  and  _338
REMARK  138  A    between atoms: _337  and  _340
REMARK  139  A    between atoms: _340  and  _341
REMARK  140  A    between atoms: _344  and  _346
REMARK  141  A    between atoms: _346  and  _347
REMARK  142  A    between atoms: _346  and  _349
REMARK  143  A    between atoms: _349  and  _350
REMARK  144  A    between atoms: _355  and  _357
REMARK  145  A    between atoms: _357  and  _358
REMARK  146  A    between atoms: _357  and  _360
REMARK  147  A    between atoms: _360  and  _361
REMARK  148  A    between atoms: _364  and  _366
REMARK  149  A    between atoms: _366  and  _367
REMARK  150  A    between atoms: _366  and  _369
REMARK  151  A    between atoms: _372  and  _374
REMARK  152  A    between atoms: _374  and  _375
REMARK  153  A    between atoms: _374  and  _377
REMARK  154  A    between atoms: _377  and  _378
REMARK  155  A    between atoms: _381  and  _383
REMARK  156  A    between atoms: _383  and  _384
REMARK  157  A    between atoms: _383  and  _386
REMARK  158  A    between atoms: _386  and  _387
REMARK  159  A    between atoms: _387  and  _388
REMARK  160  A    between atoms: _388  and  _389
REMARK  161  A    between atoms: _389  and  _390
REMARK  162  A    between atoms: _394  and  _396
REMARK  163  A    between atoms: _396  and  _397
REMARK  164  A    between atoms: _396  and  _399
REMARK  165  A    between atoms: _399  and  _400
REMARK  166  A    between atoms: _400  and  _401
REMARK  167  A    between atoms: _403  and  _405
REMARK  168  A    between atoms: _405  and  _406
REMARK  169  A    between atoms: _405  and  _408
REMARK  170  A    between atoms: _408  and  _409
REMARK  171  A    between atoms: _412  and  _414
REMARK  172  A    between atoms: _414  and  _415
REMARK  173  A    between atoms: _417  and  _419
REMARK  174  A    between atoms: _419  and  _420
REMARK  175  A    between atoms: _422  and  _424
REMARK  176  A    between atoms: _424  and  _425
REMARK  177  A    between atoms: _424  and  _427
REMARK  178  A    between atoms: _427  and  _428
REMARK  179  A    between atoms: _431  and  _433
REMARK  180  A    between atoms: _433  and  _434
REMARK  181  A    between atoms: _436  and  _438
REMARK  182  A    between atoms: _438  and  _439
REMARK  183  A    between atoms: _441  and  _443
REMARK  184  A    between atoms: _443  and  _444
REMARK  185  A    between atoms: _443  and  _446
REMARK  186  A    between atoms: _446  and  _447
REMARK  187  A    between atoms: _453  and  _455
REMARK  188  A    between atoms: _455  and  _456
REMARK  189  A    between atoms: _455  and  _458
REMARK  190  A    between atoms: _458  and  _459
REMARK  191  A    between atoms: _462  and  _464
REMARK  192  A    between atoms: _464  and  _465
REMARK  193  A    between atoms: _464  and  _467
REMARK  194  A    between atoms: _470  and  _472
REMARK  195  A    between atoms: _472  and  _473
REMARK  196  A    between atoms: _472  and  _475
REMARK  197  A    between atoms: _475  and  _476
REMARK  198  A    between atoms: _479  and  _481
REMARK  199  A    between atoms: _481  and  _482
REMARK  200  A    between atoms: _481  and  _484
REMARK  201  A    between atoms: _484  and  _485
REMARK  202  A    between atoms: _489  and  _490
REMARK  203  A    between atoms: _495  and  _497
REMARK  204  A    between atoms: _497  and  _498
REMARK  205  A    between atoms: _497  and  _500
REMARK  206  A    between atoms: _503  and  _505
REMARK  207  A    between atoms: _505  and  _506
REMARK  208  A    between atoms: _505  and  _508
REMARK  209  A    between atoms: _508  and  _509
REMARK  210  A    between atoms: _514  and  _516
REMARK  211  A    between atoms: _516  and  _517
REMARK  212  A    between atoms: _516  and  _519
REMARK  213  A    between atoms: _519  and  _520
REMARK  214  A    between atoms: _523  and  _525
REMARK  215  A    between atoms: _525  and  _526
REMARK  216  A    between atoms: _525  and  _528
REMARK  217  A    between atoms: _528  and  _529
REMARK  218  A    between atoms: _532  and  _534
REMARK  219  A    between atoms: _534  and  _535
REMARK  220  A    between atoms: _537  and  _539
REMARK  221  A    between atoms: _539  and  _540
REMARK  222  A    between atoms: _539  and  _542
REMARK  223  A    between atoms: _542  and  _543
REMARK  224  A    between atoms: _543  and  _544
REMARK  225  A    between atoms: _544  and  _545
REMARK                            x       y       z     vdW  Elec       q    Type
REMARK                         _______ _______ _______ _____ _____    ______ ____
ROOT
ATOM      1  O   HOH     1      -3.471  14.199  18.833  0.00  0.00    +0.000 OA
ENDROOT
TORSDOF 0
REMARK  Name = ../refined-set-2016/2pym/2pym_pocket.pdb
REMARK  225 active torsions:
REMARK  status: ('A' for Active; 'I' for Inactive)
REMARK    1  A    between atoms: _1  and  _3
REMARK    2  A    between atoms: _3  and  _4
REMARK    3  A    between atoms: _3  and  _6
REMARK    4  A    between atoms: _6  and  _7
REMARK    5  A    between atoms: _7  and  _8
REMARK    6  A    between atoms: _8  and  _9
REMARK    7  A    between atoms: _18  and  _20
REMARK    8  A    between atoms: _20  and  _21
REMARK    9  A    between atoms: _20  and  _23
REMARK   10  A    between atoms: _23  and  _24
REMARK   11  A    between atoms: _27  and  _29
REMARK   12  A    between atoms: _29  and  _30
REMARK   13  A    between atoms: _29  and  _32
REMARK   14  A    between atoms: _32  and  _33
REMARK   15  A    between atoms: _36  and  _38
REMARK   16  A    between atoms: _38  and  _39
REMARK   17  A    between atoms: _38  and  _41
REMARK   18  A    between atoms: _41  and  _42
REMARK   19  A    between atoms: _45  and  _47
REMARK   20  A    between atoms: _47  and  _48
REMARK   21  A    between atoms: _47  and  _50
REMARK   22  A    between atoms: _50  and  _51
REMARK   23  A    between atoms: _54  and  _56
REMARK   24  A    between atoms: _56  and  _57
REMARK   25  A    between atoms: _59  and  _61
REMARK   26  A    between atoms: _61  and  _62
REMARK   27  A    between atoms: _65  and  _67
REMARK   28  A    between atoms: _67  and  _68
REMARK   29  A    between atoms: _67  and  _70
REMARK   30  A    between atoms: _70  and  _71
REMARK   31  A    between atoms: _74  and  _76
REMARK   32  A    between atoms: _76  and  _77
REMARK   33  A    between atoms: _76  and  _79
REMARK   34  A    between atoms: _79  and  _80
REMARK   35  A    between atoms: _85  and  _87
REMARK   36  A    between atoms: _87  and  _88
REMARK   37  A    between atoms: _87  and  _90
REMARK   38  A    between atoms: _90  and  _91
REMARK   39  A    between atoms: _94  and  _96
REMARK   40  A    between atoms: _96  and  _97
REMARK   41  A    between atoms: _96  and  _99
REMARK   42  A    between atoms: _102  and  _104
REMARK   43  A    between atoms: _104  and  _105
REMARK   44  A    between atoms: _104  and  _107
REMARK   45  A    between atoms: _107  and  _108
REMARK   46  A    between atoms: _108  and  _109
REMARK   47  A    between atoms: _109  and  _110
REMARK   48  A    between atoms: _110  and  _111
REMARK   49  A    between atoms: _115  and  _117
REMARK   50  A    between atoms: _117  and  _118
REMARK   51  A    between atoms: _117  and  _120
REMARK   52  A    between atoms: _120  and  _121
REMARK   53  A    between atoms: _124  and  _126
REMARK   54  A    between atoms: _126  and  _127
REMARK   55  A    between atoms: _129  and  _131
REMARK   56  A    between atoms: _131  and  _132
REMARK   57  A    between atoms: _134  and  _136
REMARK   58  A    between atoms: _136  and  _137
REMARK   59  A    between atoms: _136  and  _139
REMARK   60  A    between atoms: _139  and  _140
REMARK   61  A    between atoms: _143  and  _145
REMARK   62  A    between atoms: _145  and  _146
REMARK   63  A    between atoms: _148  and  _150
REMARK   64  A    between atoms: _150  and  _151
REMARK   65  A    between atoms: _153  and  _155
REMARK   66  A    between atoms: _155  and  _156
REMARK   67  A    between atoms: _155  and  _158
REMARK   68  A    between atoms: _158  and  _159
REMARK   69  A    between atoms: _162  and  _164
REMARK   70  A    between atoms: _164  and  _165
REMARK   71  A    between atoms: _164  and  _167
REMARK   72  A    between atoms: _167  and  _168
REMARK   73  A    between atoms: _172  and  _173
REMARK   74  A    between atoms: _178  and  _180
REMARK   75  A    between atoms: _180  and  _181
REMARK   76  A    between atoms: _180  and  _183
REMARK   77  A    between atoms: _183  and  _184
REMARK   78  A    between atoms: _188  and  _189
REMARK   79  A    between atoms: _194  and  _196
REMARK   80  A    between atoms: _196  and  _197
REMARK   81  A    between atoms: _196  and  _199
REMARK   82  A    between atoms: _202  and  _204
REMARK   83  A    between atoms: _204  and  _205
REMARK   84  A    between atoms: _204  and  _207
REMARK   85  A    between atoms: _207  and  _208
REMARK   86  A    between atoms: _213  and  _215
REMARK   87  A    between atoms: _215  and  _216
REMARK   88  A    between atoms: _215  and  _218
REMARK   89  A    between atoms: _218  and  _219
REMARK   90  A    between atoms: _222  and  _224
REMARK   91  A    between atoms: _224  and  _225
REMARK   92  A    between atoms: _224  and  _227
REMARK   93  A    between atoms: _227  and  _228
REMARK   94  A    between atoms: _231  and  _233
REMARK   95  A    between atoms: _233  and  _234
REMARK   96  A    between atoms: _236  and  _238
REMARK   97  A    between atoms: _238  and  _239
REMARK   98  A    between atoms: _238  and  _241
REMARK   99  A    between atoms: _241  and  _242
REMARK  100  A    between atoms: _242  and  _243
REMARK  101  A    between atoms: _243  and  _244
REMARK  102  A    between atoms: _253  and  _255
REMARK  103  A    between atoms: _255  and  _256
REMARK  104  A    between atoms: _255  and  _258
REMARK  105  A    between atoms: _258  and  _259
REMARK  106  A    between atoms: _262  and  _264
REMARK  107  A    between atoms: _264  and  _265
REMARK  108  A    between atoms: _264  and  _267
REMARK  109  A    between atoms: _267  and  _268
REMARK  110  A    between atoms: _268  and  _269
REMARK  111  A    between atoms: _269  and  _270
REMARK  112  A    between atoms: _279  and  _281
REMARK  113  A    between atoms: _281  and  _282
REMARK  114  A    between atoms: _281  and  _284
REMARK  115  A    between atoms: _284  and  _285
REMARK  116  A    between atoms: _288  and  _290
REMARK  117  A    between atoms: _290  and  _291
REMARK  118  A    between atoms: _290  and  _293
REMARK  119  A    between atoms: _293  and  _294
REMARK  120  A    between atoms: _297  and  _299
REMARK  121  A    between atoms: _299  and  _300
REMARK  122  A    between atoms: _299  and  _302
REMARK  123  A    between atoms: _302  and  _303
REMARK  124  A    between atoms: _306  and  _308
REMARK  125  A    between atoms: _308  and  _309
REMARK  126  A    between atoms: _308  and  _311
REMARK  127  A    between atoms: _311  and  _312
REMARK  128  A    between atoms: _315  and  _317
REMARK  129  A    between atoms: _317  and  _318
REMARK  130  A    between atoms: _317  and  _320
REMARK  131  A    between atoms: _320  and  _321
REMARK  132  A    between atoms: _324  and  _326
REMARK  133  A    between atoms: _326  and  _327
REMARK  134  A    between atoms: _329  and  _331
REMARK  135  A    between atoms: _331  and  _332
REMARK  136  A    between atoms: _335  and  _337
REMARK  137  A    between atoms: _337  and  _338
REMARK  138  A    between atoms: _337  and  _340
REMARK  139  A    between atoms: _340  and  _341
REMARK  140  A    between atoms: _344  and  _346
REMARK  141  A    between atoms: _346  and  _347
REMARK  142  A    between atoms: _346  and  _349
REMARK  143  A    between atoms: _349  and  _350
REMARK  144  A    between atoms: _355  and  _357
REMARK  145  A    between atoms: _357  and  _358
REMARK  146  A    between atoms: _357  and  _360
REMARK  147  A    between atoms: _360  and  _361
REMARK  148  A    between atoms: _364  and  _366
REMARK  149  A    between atoms: _366  and  _367
REMARK  150  A    between atoms: _366  and  _369
REMARK  151  A    between atoms: _372  and  _374
REMARK  152  A    between atoms: _374  and  _375
REMARK  153  A    between atoms: _374  and  _377
REMARK  154  A    between atoms: _377  and  _378
REMARK  155  A    between atoms: _381  and  _383
REMARK  156  A    between atoms: _383  and  _384
REMARK  157  A    between atoms: _383  and  _386
REMARK  158  A    between atoms: _386  and  _387
REMARK  159  A    between atoms: _387  and  _388
REMARK  160  A    between atoms: _388  and  _389
REMARK  161  A    between atoms: _389  and  _390
REMARK  162  A    between atoms: _394  and  _396
REMARK  163  A    between atoms: _396  and  _397
REMARK  164  A    between atoms: _396  and  _399
REMARK  165  A    between atoms: _399  and  _400
REMARK  166  A    between atoms: _400  and  _401
REMARK  167  A    between atoms: _403  and  _405
REMARK  168  A    between atoms: _405  and  _406
REMARK  169  A    between atoms: _405  and  _408
REMARK  170  A    between atoms: _408  and  _409
REMARK  171  A    between atoms: _412  and  _414
REMARK  172  A    between atoms: _414  and  _415
REMARK  173  A    between atoms: _417  and  _419
REMARK  174  A    between atoms: _419  and  _420
REMARK  175  A    between atoms: _422  and  _424
REMARK  176  A    between atoms: _424  and  _425
REMARK  177  A    between atoms: _424  and  _427
REMARK  178  A    between atoms: _427  and  _428
REMARK  179  A    between atoms: _431  and  _433
REMARK  180  A    between atoms: _433  and  _434
REMARK  181  A    between atoms: _436  and  _438
REMARK  182  A    between atoms: _438  and  _439
REMARK  183  A    between atoms: _441  and  _443
REMARK  184  A    between atoms: _443  and  _444
REMARK  185  A    between atoms: _443  and  _446
REMARK  186  A    between atoms: _446  and  _447
REMARK  187  A    between atoms: _453  and  _455
REMARK  188  A    between atoms: _455  and  _456
REMARK  189  A    between atoms: _455  and  _458
REMARK  190  A    between atoms: _458  and  _459
REMARK  191  A    between atoms: _462  and  _464
REMARK  192  A    between atoms: _464  and  _465
REMARK  193  A    between atoms: _464  and  _467
REMARK  194  A    between atoms: _470  and  _472
REMARK  195  A    between atoms: _472  and  _473
REMARK  196  A    between atoms: _472  and  _475
REMARK  197  A    between atoms: _475  and  _476
REMARK  198  A    between atoms: _479  and  _481
REMARK  199  A    between atoms: _481  and  _482
REMARK  200  A    between atoms: _481  and  _484
REMARK  201  A    between atoms: _484  and  _485
REMARK  202  A    between atoms: _489  and  _490
REMARK  203  A    between atoms: _495  and  _497
REMARK  204  A    between atoms: _497  and  _498
REMARK  205  A    between atoms: _497  and  _500
REMARK  206  A    between atoms: _503  and  _505
REMARK  207  A    between atoms: _505  and  _506
REMARK  208  A    between atoms: _505  and  _508
REMARK  209  A    between atoms: _508  and  _509
REMARK  210  A    between atoms: _514  and  _516
REMARK  211  A    between atoms: _516  and  _517
REMARK  212  A    between atoms: _516  and  _519
REMARK  213  A    between atoms: _519  and  _520
REMARK  214  A    between atoms: _523  and  _525
REMARK  215  A    between atoms: _525  and  _526
REMARK  216  A    between atoms: _525  and  _528
REMARK  217  A    between atoms: _528  and  _529
REMARK  218  A    between atoms: _532  and  _534
REMARK  219  A    between atoms: _534  and  _535
REMARK  220  A    between atoms: _537  and  _539
REMARK  221  A    between atoms: _539  and  _540
REMARK  222  A    between atoms: _539  and  _542
REMARK  223  A    between atoms: _542  and  _543
REMARK  224  A    between atoms: _543  and  _544
REMARK  225  A    between atoms: _544  and  _545
REMARK                            x       y       z     vdW  Elec       q    Type
REMARK                         _______ _______ _______ _____ _____    ______ ____
ROOT
ATOM      1  O   HOH     1     -16.236  18.274  31.410  0.00  0.00    +0.000 OA
ENDROOT
TORSDOF 0
REMARK  Name = ../refined-set-2016/2pym/2pym_pocket.pdb
REMARK  225 active torsions:
REMARK  status: ('A' for Active; 'I' for Inactive)
REMARK    1  A    between atoms: _1  and  _3
REMARK    2  A    between atoms: _3  and  _4
REMARK    3  A    between atoms: _3  and  _6
REMARK    4  A    between atoms: _6  and  _7
REMARK    5  A    between atoms: _7  and  _8
REMARK    6  A    between atoms: _8  and  _9
REMARK    7  A    between atoms: _18  and  _20
REMARK    8  A    between atoms: _20  and  _21
REMARK    9  A    between atoms: _20  and  _23
REMARK   10  A    between atoms: _23  and  _24
REMARK   11  A    between atoms: _27  and  _29
REMARK   12  A    between atoms: _29  and  _30
REMARK   13  A    between atoms: _29  and  _32
REMARK   14  A    between atoms: _32  and  _33
REMARK   15  A    between atoms: _36  and  _38
REMARK   16  A    between atoms: _38  and  _39
REMARK   17  A    between atoms: _38  and  _41
REMARK   18  A    between atoms: _41  and  _42
REMARK   19  A    between atoms: _45  and  _47
REMARK   20  A    between atoms: _47  and  _48
REMARK   21  A    between atoms: _47  and  _50
REMARK   22  A    between atoms: _50  and  _51
REMARK   23  A    between atoms: _54  and  _56
REMARK   24  A    between atoms: _56  and  _57
REMARK   25  A    between atoms: _59  and  _61
REMARK   26  A    between atoms: _61  and  _62
REMARK   27  A    between atoms: _65  and  _67
REMARK   28  A    between atoms: _67  and  _68
REMARK   29  A    between atoms: _67  and  _70
REMARK   30  A    between atoms: _70  and  _71
REMARK   31  A    between atoms: _74  and  _76
REMARK   32  A    between atoms: _76  and  _77
REMARK   33  A    between atoms: _76  and  _79
REMARK   34  A    between atoms: _79  and  _80
REMARK   35  A    between atoms: _85  and  _87
REMARK   36  A    between atoms: _87  and  _88
REMARK   37  A    between atoms: _87  and  _90
REMARK   38  A    between atoms: _90  and  _91
REMARK   39  A    between atoms: _94  and  _96
REMARK   40  A    between atoms: _96  and  _97
REMARK   41  A    between atoms: _96  and  _99
REMARK   42  A    between atoms: _102  and  _104
REMARK   43  A    between atoms: _104  and  _105
REMARK   44  A    between atoms: _104  and  _107
REMARK   45  A    between atoms: _107  and  _108
REMARK   46  A    between atoms: _108  and  _109
REMARK   47  A    between atoms: _109  and  _110
REMARK   48  A    between atoms: _110  and  _111
REMARK   49  A    between atoms: _115  and  _117
REMARK   50  A    between atoms: _117  and  _118
REMARK   51  A    between atoms: _117  and  _120
REMARK   52  A    between atoms: _120  and  _121
REMARK   53  A    between atoms: _124  and  _126
REMARK   54  A    between atoms: _126  and  _127
REMARK   55  A    between atoms: _129  and  _131
REMARK   56  A    between atoms: _131  and  _132
REMARK   57  A    between atoms: _134  and  _136
REMARK   58  A    between atoms: _136  and  _137
REMARK   59  A    between atoms: _136  and  _139
REMARK   60  A    between atoms: _139  and  _140
REMARK   61  A    between atoms: _143  and  _145
REMARK   62  A    between atoms: _145  and  _146
REMARK   63  A    between atoms: _148  and  _150
REMARK   64  A    between atoms: _150  and  _151
REMARK   65  A    between atoms: _153  and  _155
REMARK   66  A    between atoms: _155  and  _156
REMARK   67  A    between atoms: _155  and  _158
REMARK   68  A    between atoms: _158  and  _159
REMARK   69  A    between atoms: _162  and  _164
REMARK   70  A    between atoms: _164  and  _165
REMARK   71  A    between atoms: _164  and  _167
REMARK   72  A    between atoms: _167  and  _168
REMARK   73  A    between atoms: _172  and  _173
REMARK   74  A    between atoms: _178  and  _180
REMARK   75  A    between atoms: _180  and  _181
REMARK   76  A    between atoms: _180  and  _183
REMARK   77  A    between atoms: _183  and  _184
REMARK   78  A    between atoms: _188  and  _189
REMARK   79  A    between atoms: _194  and  _196
REMARK   80  A    between atoms: _196  and  _197
REMARK   81  A    between atoms: _196  and  _199
REMARK   82  A    between atoms: _202  and  _204
REMARK   83  A    between atoms: _204  and  _205
REMARK   84  A    between atoms: _204  and  _207
REMARK   85  A    between atoms: _207  and  _208
REMARK   86  A    between atoms: _213  and  _215
REMARK   87  A    between atoms: _215  and  _216
REMARK   88  A    between atoms: _215  and  _218
REMARK   89  A    between atoms: _218  and  _219
REMARK   90  A    between atoms: _222  and  _224
REMARK   91  A    between atoms: _224  and  _225
REMARK   92  A    between atoms: _224  and  _227
REMARK   93  A    between atoms: _227  and  _228
REMARK   94  A    between atoms: _231  and  _233
REMARK   95  A    between atoms: _233  and  _234
REMARK   96  A    between atoms: _236  and  _238
REMARK   97  A    between atoms: _238  and  _239
REMARK   98  A    between atoms: _238  and  _241
REMARK   99  A    between atoms: _241  and  _242
REMARK  100  A    between atoms: _242  and  _243
REMARK  101  A    between atoms: _243  and  _244
REMARK  102  A    between atoms: _253  and  _255
REMARK  103  A    between atoms: _255  and  _256
REMARK  104  A    between atoms: _255  and  _258
REMARK  105  A    between atoms: _258  and  _259
REMARK  106  A    between atoms: _262  and  _264
REMARK  107  A    between atoms: _264  and  _265
REMARK  108  A    between atoms: _264  and  _267
REMARK  109  A    between atoms: _267  and  _268
REMARK  110  A    between atoms: _268  and  _269
REMARK  111  A    between atoms: _269  and  _270
REMARK  112  A    between atoms: _279  and  _281
REMARK  113  A    between atoms: _281  and  _282
REMARK  114  A    between atoms: _281  and  _284
REMARK  115  A    between atoms: _284  and  _285
REMARK  116  A    between atoms: _288  and  _290
REMARK  117  A    between atoms: _290  and  _291
REMARK  118  A    between atoms: _290  and  _293
REMARK  119  A    between atoms: _293  and  _294
REMARK  120  A    between atoms: _297  and  _299
REMARK  121  A    between atoms: _299  and  _300
REMARK  122  A    between atoms: _299  and  _302
REMARK  123  A    between atoms: _302  and  _303
REMARK  124  A    between atoms: _306  and  _308
REMARK  125  A    between atoms: _308  and  _309
REMARK  126  A    between atoms: _308  and  _311
REMARK  127  A    between atoms: _311  and  _312
REMARK  128  A    between atoms: _315  and  _317
REMARK  129  A    between atoms: _317  and  _318
REMARK  130  A    between atoms: _317  and  _320
REMARK  131  A    between atoms: _320  and  _321
REMARK  132  A    between atoms: _324  and  _326
REMARK  133  A    between atoms: _326  and  _327
REMARK  134  A    between atoms: _329  and  _331
REMARK  135  A    between atoms: _331  and  _332
REMARK  136  A    between atoms: _335  and  _337
REMARK  137  A    between atoms: _337  and  _338
REMARK  138  A    between atoms: _337  and  _340
REMARK  139  A    between atoms: _340  and  _341
REMARK  140  A    between atoms: _344  and  _346
REMARK  141  A    between atoms: _346  and  _347
REMARK  142  A    between atoms: _346  and  _349
REMARK  143  A    between atoms: _349  and  _350
REMARK  144  A    between atoms: _355  and  _357
REMARK  145  A    between atoms: _357  and  _358
REMARK  146  A    between atoms: _357  and  _360
REMARK  147  A    between atoms: _360  and  _361
REMARK  148  A    between atoms: _364  and  _366
REMARK  149  A    between atoms: _366  and  _367
REMARK  150  A    between atoms: _366  and  _369
REMARK  151  A    between atoms: _372  and  _374
REMARK  152  A    between atoms: _374  and  _375
REMARK  153  A    between atoms: _374  and  _377
REMARK  154  A    between atoms: _377  and  _378
REMARK  155  A    between atoms: _381  and  _383
REMARK  156  A    between atoms: _383  and  _384
REMARK  157  A    between atoms: _383  and  _386
REMARK  158  A    between atoms: _386  and  _387
REMARK  159  A    between atoms: _387  and  _388
REMARK  160  A    between atoms: _388  and  _389
REMARK  161  A    between atoms: _389  and  _390
REMARK  162  A    between atoms: _394  and  _396
REMARK  163  A    between atoms: _396  and  _397
REMARK  164  A    between atoms: _396  and  _399
REMARK  165  A    between atoms: _399  and  _400
REMARK  166  A    between atoms: _400  and  _401
REMARK  167  A    between atoms: _403  and  _405
REMARK  168  A    between atoms: _405  and  _406
REMARK  169  A    between atoms: _405  and  _408
REMARK  170  A    between atoms: _408  and  _409
REMARK  171  A    between atoms: _412  and  _414
REMARK  172  A    between atoms: _414  and  _415
REMARK  173  A    between atoms: _417  and  _419
REMARK  174  A    between atoms: _419  and  _420
REMARK  175  A    between atoms: _422  and  _424
REMARK  176  A    between atoms: _424  and  _425
REMARK  177  A    between atoms: _424  and  _427
REMARK  178  A    between atoms: _427  and  _428
REMARK  179  A    between atoms: _431  and  _433
REMARK  180  A    between atoms: _433  and  _434
REMARK  181  A    between atoms: _436  and  _438
REMARK  182  A    between atoms: _438  and  _439
REMARK  183  A    between atoms: _441  and  _443
REMARK  184  A    between atoms: _443  and  _444
REMARK  185  A    between atoms: _443  and  _446
REMARK  186  A    between atoms: _446  and  _447
REMARK  187  A    between atoms: _453  and  _455
REMARK  188  A    between atoms: _455  and  _456
REMARK  189  A    between atoms: _455  and  _458
REMARK  190  A    between atoms: _458  and  _459
REMARK  191  A    between atoms: _462  and  _464
REMARK  192  A    between atoms: _464  and  _465
REMARK  193  A    between atoms: _464  and  _467
REMARK  194  A    between atoms: _470  and  _472
REMARK  195  A    between atoms: _472  and  _473
REMARK  196  A    between atoms: _472  and  _475
REMARK  197  A    between atoms: _475  and  _476
REMARK  198  A    between atoms: _479  and  _481
REMARK  199  A    between atoms: _481  and  _482
REMARK  200  A    between atoms: _481  and  _484
REMARK  201  A    between atoms: _484  and  _485
REMARK  202  A    between atoms: _489  and  _490
REMARK  203  A    between atoms: _495  and  _497
REMARK  204  A    between atoms: _497  and  _498
REMARK  205  A    between atoms: _497  and  _500
REMARK  206  A    between atoms: _503  and  _505
REMARK  207  A    between atoms: _505  and  _506
REMARK  208  A    between atoms: _505  and  _508
REMARK  209  A    between atoms: _508  and  _509
REMARK  210  A    between atoms: _514  and  _516
REMARK  211  A    between atoms: _516  and  _517
REMARK  212  A    between atoms: _516  and  _519
REMARK  213  A    between atoms: _519  and  _520
REMARK  214  A    between atoms: _523  and  _525
REMARK  215  A    between atoms: _525  and  _526
REMARK  216  A    between atoms: _525  and  _528
REMARK  217  A    between atoms: _528  and  _529
REMARK  218  A    between atoms: _532  and  _534
REMARK  219  A    between atoms: _534  and  _535
REMARK  220  A    between atoms: _537  and  _539
REMARK  221  A    between atoms: _539  and  _540
REMARK  222  A    between atoms: _539  and  _542
REMARK  223  A    between atoms: _542  and  _543
REMARK  224  A    between atoms: _543  and  _544
REMARK  225  A    between atoms: _544  and  _545
REMARK                            x       y       z     vdW  Elec       q    Type
REMARK                         _______ _______ _______ _____ _____    ______ ____
ROOT
ATOM      1  O   HOH     1      -8.033  18.849  40.042  0.00  0.00    +0.000 OA
ENDROOT
TORSDOF 0
REMARK  Name = ../refined-set-2016/2pym/2pym_pocket.pdb
REMARK  225 active torsions:
REMARK  status: ('A' for Active; 'I' for Inactive)
REMARK    1  A    between atoms: _1  and  _3
REMARK    2  A    between atoms: _3  and  _4
REMARK    3  A    between atoms: _3  and  _6
REMARK    4  A    between atoms: _6  and  _7
REMARK    5  A    between atoms: _7  and  _8
REMARK    6  A    between atoms: _8  and  _9
REMARK    7  A    between atoms: _18  and  _20
REMARK    8  A    between atoms: _20  and  _21
REMARK    9  A    between atoms: _20  and  _23
REMARK   10  A    between atoms: _23  and  _24
REMARK   11  A    between atoms: _27  and  _29
REMARK   12  A    between atoms: _29  and  _30
REMARK   13  A    between atoms: _29  and  _32
REMARK   14  A    between atoms: _32  and  _33
REMARK   15  A    between atoms: _36  and  _38
REMARK   16  A    between atoms: _38  and  _39
REMARK   17  A    between atoms: _38  and  _41
REMARK   18  A    between atoms: _41  and  _42
REMARK   19  A    between atoms: _45  and  _47
REMARK   20  A    between atoms: _47  and  _48
REMARK   21  A    between atoms: _47  and  _50
REMARK   22  A    between atoms: _50  and  _51
REMARK   23  A    between atoms: _54  and  _56
REMARK   24  A    between atoms: _56  and  _57
REMARK   25  A    between atoms: _59  and  _61
REMARK   26  A    between atoms: _61  and  _62
REMARK   27  A    between atoms: _65  and  _67
REMARK   28  A    between atoms: _67  and  _68
REMARK   29  A    between atoms: _67  and  _70
REMARK   30  A    between atoms: _70  and  _71
REMARK   31  A    between atoms: _74  and  _76
REMARK   32  A    between atoms: _76  and  _77
REMARK   33  A    between atoms: _76  and  _79
REMARK   34  A    between atoms: _79  and  _80
REMARK   35  A    between atoms: _85  and  _87
REMARK   36  A    between atoms: _87  and  _88
REMARK   37  A    between atoms: _87  and  _90
REMARK   38  A    between atoms: _90  and  _91
REMARK   39  A    between atoms: _94  and  _96
REMARK   40  A    between atoms: _96  and  _97
REMARK   41  A    between atoms: _96  and  _99
REMARK   42  A    between atoms: _102  and  _104
REMARK   43  A    between atoms: _104  and  _105
REMARK   44  A    between atoms: _104  and  _107
REMARK   45  A    between atoms: _107  and  _108
REMARK   46  A    between atoms: _108  and  _109
REMARK   47  A    between atoms: _109  and  _110
REMARK   48  A    between atoms: _110  and  _111
REMARK   49  A    between atoms: _115  and  _117
REMARK   50  A    between atoms: _117  and  _118
REMARK   51  A    between atoms: _117  and  _120
REMARK   52  A    between atoms: _120  and  _121
REMARK   53  A    between atoms: _124  and  _126
REMARK   54  A    between atoms: _126  and  _127
REMARK   55  A    between atoms: _129  and  _131
REMARK   56  A    between atoms: _131  and  _132
REMARK   57  A    between atoms: _134  and  _136
REMARK   58  A    between atoms: _136  and  _137
REMARK   59  A    between atoms: _136  and  _139
REMARK   60  A    between atoms: _139  and  _140
REMARK   61  A    between atoms: _143  and  _145
REMARK   62  A    between atoms: _145  and  _146
REMARK   63  A    between atoms: _148  and  _150
REMARK   64  A    between atoms: _150  and  _151
REMARK   65  A    between atoms: _153  and  _155
REMARK   66  A    between atoms: _155  and  _156
REMARK   67  A    between atoms: _155  and  _158
REMARK   68  A    between atoms: _158  and  _159
REMARK   69  A    between atoms: _162  and  _164
REMARK   70  A    between atoms: _164  and  _165
REMARK   71  A    between atoms: _164  and  _167
REMARK   72  A    between atoms: _167  and  _168
REMARK   73  A    between atoms: _172  and  _173
REMARK   74  A    between atoms: _178  and  _180
REMARK   75  A    between atoms: _180  and  _181
REMARK   76  A    between atoms: _180  and  _183
REMARK   77  A    between atoms: _183  and  _184
REMARK   78  A    between atoms: _188  and  _189
REMARK   79  A    between atoms: _194  and  _196
REMARK   80  A    between atoms: _196  and  _197
REMARK   81  A    between atoms: _196  and  _199
REMARK   82  A    between atoms: _202  and  _204
REMARK   83  A    between atoms: _204  and  _205
REMARK   84  A    between atoms: _204  and  _207
REMARK   85  A    between atoms: _207  and  _208
REMARK   86  A    between atoms: _213  and  _215
REMARK   87  A    between atoms: _215  and  _216
REMARK   88  A    between atoms: _215  and  _218
REMARK   89  A    between atoms: _218  and  _219
REMARK   90  A    between atoms: _222  and  _224
REMARK   91  A    between atoms: _224  and  _225
REMARK   92  A    between atoms: _224  and  _227
REMARK   93  A    between atoms: _227  and  _228
REMARK   94  A    between atoms: _231  and  _233
REMARK   95  A    between atoms: _233  and  _234
REMARK   96  A    between atoms: _236  and  _238
REMARK   97  A    between atoms: _238  and  _239
REMARK   98  A    between atoms: _238  and  _241
REMARK   99  A    between atoms: _241  and  _242
REMARK  100  A    between atoms: _242  and  _243
REMARK  101  A    between atoms: _243  and  _244
REMARK  102  A    between atoms: _253  and  _255
REMARK  103  A    between atoms: _255  and  _256
REMARK  104  A    between atoms: _255  and  _258
REMARK  105  A    between atoms: _258  and  _259
REMARK  106  A    between atoms: _262  and  _264
REMARK  107  A    between atoms: _264  and  _265
REMARK  108  A    between atoms: _264  and  _267
REMARK  109  A    between atoms: _267  and  _268
REMARK  110  A    between atoms: _268  and  _269
REMARK  111  A    between atoms: _269  and  _270
REMARK  112  A    between atoms: _279  and  _281
REMARK  113  A    between atoms: _281  and  _282
REMARK  114  A    between atoms: _281  and  _284
REMARK  115  A    between atoms: _284  and  _285
REMARK  116  A    between atoms: _288  and  _290
REMARK  117  A    between atoms: _290  and  _291
REMARK  118  A    between atoms: _290  and  _293
REMARK  119  A    between atoms: _293  and  _294
REMARK  120  A    between atoms: _297  and  _299
REMARK  121  A    between atoms: _299  and  _300
REMARK  122  A    between atoms: _299  and  _302
REMARK  123  A    between atoms: _302  and  _303
REMARK  124  A    between atoms: _306  and  _308
REMARK  125  A    between atoms: _308  and  _309
REMARK  126  A    between atoms: _308  and  _311
REMARK  127  A    between atoms: _311  and  _312
REMARK  128  A    between atoms: _315  and  _317
REMARK  129  A    between atoms: _317  and  _318
REMARK  130  A    between atoms: _317  and  _320
REMARK  131  A    between atoms: _320  and  _321
REMARK  132  A    between atoms: _324  and  _326
REMARK  133  A    between atoms: _326  and  _327
REMARK  134  A    between atoms: _329  and  _331
REMARK  135  A    between atoms: _331  and  _332
REMARK  136  A    between atoms: _335  and  _337
REMARK  137  A    between atoms: _337  and  _338
REMARK  138  A    between atoms: _337  and  _340
REMARK  139  A    between atoms: _340  and  _341
REMARK  140  A    between atoms: _344  and  _346
REMARK  141  A    between atoms: _346  and  _347
REMARK  142  A    between atoms: _346  and  _349
REMARK  143  A    between atoms: _349  and  _350
REMARK  144  A    between atoms: _355  and  _357
REMARK  145  A    between atoms: _357  and  _358
REMARK  146  A    between atoms: _357  and  _360
REMARK  147  A    between atoms: _360  and  _361
REMARK  148  A    between atoms: _364  and  _366
REMARK  149  A    between atoms: _366  and  _367
REMARK  150  A    between atoms: _366  and  _369
REMARK  151  A    between atoms: _372  and  _374
REMARK  152  A    between atoms: _374  and  _375
REMARK  153  A    between atoms: _374  and  _377
REMARK  154  A    between atoms: _377  and  _378
REMARK  155  A    between atoms: _381  and  _383
REMARK  156  A    between atoms: _383  and  _384
REMARK  157  A    between atoms: _383  and  _386
REMARK  158  A    between atoms: _386  and  _387
REMARK  159  A    between atoms: _387  and  _388
REMARK  160  A    between atoms: _388  and  _389
REMARK  161  A    between atoms: _389  and  _390
REMARK  162  A    between atoms: _394  and  _396
REMARK  163  A    between atoms: _396  and  _397
REMARK  164  A    between atoms: _396  and  _399
REMARK  165  A    between atoms: _399  and  _400
REMARK  166  A    between atoms: _400  and  _401
REMARK  167  A    between atoms: _403  and  _405
REMARK  168  A    between atoms: _405  and  _406
REMARK  169  A    between atoms: _405  and  _408
REMARK  170  A    between atoms: _408  and  _409
REMARK  171  A    between atoms: _412  and  _414
REMARK  172  A    between atoms: _414  and  _415
REMARK  173  A    between atoms: _417  and  _419
REMARK  174  A    between atoms: _419  and  _420
REMARK  175  A    between atoms: _422  and  _424
REMARK  176  A    between atoms: _424  and  _425
REMARK  177  A    between atoms: _424  and  _427
REMARK  178  A    between atoms: _427  and  _428
REMARK  179  A    between atoms: _431  and  _433
REMARK  180  A    between atoms: _433  and  _434
REMARK  181  A    between atoms: _436  and  _438
REMARK  182  A    between atoms: _438  and  _439
REMARK  183  A    between atoms: _441  and  _443
REMARK  184  A    between atoms: _443  and  _444
REMARK  185  A    between atoms: _443  and  _446
REMARK  186  A    between atoms: _446  and  _447
REMARK  187  A    between atoms: _453  and  _455
REMARK  188  A    between atoms: _455  and  _456
REMARK  189  A    between atoms: _455  and  _458
REMARK  190  A    between atoms: _458  and  _459
REMARK  191  A    between atoms: _462  and  _464
REMARK  192  A    between atoms: _464  and  _465
REMARK  193  A    between atoms: _464  and  _467
REMARK  194  A    between atoms: _470  and  _472
REMARK  195  A    between atoms: _472  and  _473
REMARK  196  A    between atoms: _472  and  _475
REMARK  197  A    between atoms: _475  and  _476
REMARK  198  A    between atoms: _479  and  _481
REMARK  199  A    between atoms: _481  and  _482
REMARK  200  A    between atoms: _481  and  _484
REMARK  201  A    between atoms: _484  and  _485
REMARK  202  A    between atoms: _489  and  _490
REMARK  203  A    between atoms: _495  and  _497
REMARK  204  A    between atoms: _497  and  _498
REMARK  205  A    between atoms: _497  and  _500
REMARK  206  A    between atoms: _503  and  _505
REMARK  207  A    between atoms: _505  and  _506
REMARK  208  A    between atoms: _505  and  _508
REMARK  209  A    between atoms: _508  and  _509
REMARK  210  A    between atoms: _514  and  _516
REMARK  211  A    between atoms: _516  and  _517
REMARK  212  A    between atoms: _516  and  _519
REMARK  213  A    between atoms: _519  and  _520
REMARK  214  A    between atoms: _523  and  _525
REMARK  215  A    between atoms: _525  and  _526
REMARK  216  A    between atoms: _525  and  _528
REMARK  217  A    between atoms: _528  and  _529
REMARK  218  A    between atoms: _532  and  _534
REMARK  219  A    between atoms: _534  and  _535
REMARK  220  A    between atoms: _537  and  _539
REMARK  221  A    between atoms: _539  and  _540
REMARK  222  A    between atoms: _539  and  _542
REMARK  223  A    between atoms: _542  and  _543
REMARK  224  A    between atoms: _543  and  _544
REMARK  225  A    between atoms: _544  and  _545
REMARK                            x       y       z     vdW  Elec       q    Type
REMARK                         _______ _______ _______ _____ _____    ______ ____
ROOT
ATOM      1  O   HOH     1     -15.291  15.637  31.140  0.00  0.00    +0.000 OA
ENDROOT
TORSDOF 0
REMARK  Name = ../refined-set-2016/2pym/2pym_pocket.pdb
REMARK  225 active torsions:
REMARK  status: ('A' for Active; 'I' for Inactive)
REMARK    1  A    between atoms: _1  and  _3
REMARK    2  A    between atoms: _3  and  _4
REMARK    3  A    between atoms: _3  and  _6
REMARK    4  A    between atoms: _6  and  _7
REMARK    5  A    between atoms: _7  and  _8
REMARK    6  A    between atoms: _8  and  _9
REMARK    7  A    between atoms: _18  and  _20
REMARK    8  A    between atoms: _20  and  _21
REMARK    9  A    between atoms: _20  and  _23
REMARK   10  A    between atoms: _23  and  _24
REMARK   11  A    between atoms: _27  and  _29
REMARK   12  A    between atoms: _29  and  _30
REMARK   13  A    between atoms: _29  and  _32
REMARK   14  A    between atoms: _32  and  _33
REMARK   15  A    between atoms: _36  and  _38
REMARK   16  A    between atoms: _38  and  _39
REMARK   17  A    between atoms: _38  and  _41
REMARK   18  A    between atoms: _41  and  _42
REMARK   19  A    between atoms: _45  and  _47
REMARK   20  A    between atoms: _47  and  _48
REMARK   21  A    between atoms: _47  and  _50
REMARK   22  A    between atoms: _50  and  _51
REMARK   23  A    between atoms: _54  and  _56
REMARK   24  A    between atoms: _56  and  _57
REMARK   25  A    between atoms: _59  and  _61
REMARK   26  A    between atoms: _61  and  _62
REMARK   27  A    between atoms: _65  and  _67
REMARK   28  A    between atoms: _67  and  _68
REMARK   29  A    between atoms: _67  and  _70
REMARK   30  A    between atoms: _70  and  _71
REMARK   31  A    between atoms: _74  and  _76
REMARK   32  A    between atoms: _76  and  _77
REMARK   33  A    between atoms: _76  and  _79
REMARK   34  A    between atoms: _79  and  _80
REMARK   35  A    between atoms: _85  and  _87
REMARK   36  A    between atoms: _87  and  _88
REMARK   37  A    between atoms: _87  and  _90
REMARK   38  A    between atoms: _90  and  _91
REMARK   39  A    between atoms: _94  and  _96
REMARK   40  A    between atoms: _96  and  _97
REMARK   41  A    between atoms: _96  and  _99
REMARK   42  A    between atoms: _102  and  _104
REMARK   43  A    between atoms: _104  and  _105
REMARK   44  A    between atoms: _104  and  _107
REMARK   45  A    between atoms: _107  and  _108
REMARK   46  A    between atoms: _108  and  _109
REMARK   47  A    between atoms: _109  and  _110
REMARK   48  A    between atoms: _110  and  _111
REMARK   49  A    between atoms: _115  and  _117
REMARK   50  A    between atoms: _117  and  _118
REMARK   51  A    between atoms: _117  and  _120
REMARK   52  A    between atoms: _120  and  _121
REMARK   53  A    between atoms: _124  and  _126
REMARK   54  A    between atoms: _126  and  _127
REMARK   55  A    between atoms: _129  and  _131
REMARK   56  A    between atoms: _131  and  _132
REMARK   57  A    between atoms: _134  and  _136
REMARK   58  A    between atoms: _136  and  _137
REMARK   59  A    between atoms: _136  and  _139
REMARK   60  A    between atoms: _139  and  _140
REMARK   61  A    between atoms: _143  and  _145
REMARK   62  A    between atoms: _145  and  _146
REMARK   63  A    between atoms: _148  and  _150
REMARK   64  A    between atoms: _150  and  _151
REMARK   65  A    between atoms: _153  and  _155
REMARK   66  A    between atoms: _155  and  _156
REMARK   67  A    between atoms: _155  and  _158
REMARK   68  A    between atoms: _158  and  _159
REMARK   69  A    between atoms: _162  and  _164
REMARK   70  A    between atoms: _164  and  _165
REMARK   71  A    between atoms: _164  and  _167
REMARK   72  A    between atoms: _167  and  _168
REMARK   73  A    between atoms: _172  and  _173
REMARK   74  A    between atoms: _178  and  _180
REMARK   75  A    between atoms: _180  and  _181
REMARK   76  A    between atoms: _180  and  _183
REMARK   77  A    between atoms: _183  and  _184
REMARK   78  A    between atoms: _188  and  _189
REMARK   79  A    between atoms: _194  and  _196
REMARK   80  A    between atoms: _196  and  _197
REMARK   81  A    between atoms: _196  and  _199
REMARK   82  A    between atoms: _202  and  _204
REMARK   83  A    between atoms: _204  and  _205
REMARK   84  A    between atoms: _204  and  _207
REMARK   85  A    between atoms: _207  and  _208
REMARK   86  A    between atoms: _213  and  _215
REMARK   87  A    between atoms: _215  and  _216
REMARK   88  A    between atoms: _215  and  _218
REMARK   89  A    between atoms: _218  and  _219
REMARK   90  A    between atoms: _222  and  _224
REMARK   91  A    between atoms: _224  and  _225
REMARK   92  A    between atoms: _224  and  _227
REMARK   93  A    between atoms: _227  and  _228
REMARK   94  A    between atoms: _231  and  _233
REMARK   95  A    between atoms: _233  and  _234
REMARK   96  A    between atoms: _236  and  _238
REMARK   97  A    between atoms: _238  and  _239
REMARK   98  A    between atoms: _238  and  _241
REMARK   99  A    between atoms: _241  and  _242
REMARK  100  A    between atoms: _242  and  _243
REMARK  101  A    between atoms: _243  and  _244
REMARK  102  A    between atoms: _253  and  _255
REMARK  103  A    between atoms: _255  and  _256
REMARK  104  A    between atoms: _255  and  _258
REMARK  105  A    between atoms: _258  and  _259
REMARK  106  A    between atoms: _262  and  _264
REMARK  107  A    between atoms: _264  and  _265
REMARK  108  A    between atoms: _264  and  _267
REMARK  109  A    between atoms: _267  and  _268
REMARK  110  A    between atoms: _268  and  _269
REMARK  111  A    between atoms: _269  and  _270
REMARK  112  A    between atoms: _279  and  _281
REMARK  113  A    between atoms: _281  and  _282
REMARK  114  A    between atoms: _281  and  _284
REMARK  115  A    between atoms: _284  and  _285
REMARK  116  A    between atoms: _288  and  _290
REMARK  117  A    between atoms: _290  and  _291
REMARK  118  A    between atoms: _290  and  _293
REMARK  119  A    between atoms: _293  and  _294
REMARK  120  A    between atoms: _297  and  _299
REMARK  121  A    between atoms: _299  and  _300
REMARK  122  A    between atoms: _299  and  _302
REMARK  123  A    between atoms: _302  and  _303
REMARK  124  A    between atoms: _306  and  _308
REMARK  125  A    between atoms: _308  and  _309
REMARK  126  A    between atoms: _308  and  _311
REMARK  127  A    between atoms: _311  and  _312
REMARK  128  A    between atoms: _315  and  _317
REMARK  129  A    between atoms: _317  and  _318
REMARK  130  A    between atoms: _317  and  _320
REMARK  131  A    between atoms: _320  and  _321
REMARK  132  A    between atoms: _324  and  _326
REMARK  133  A    between atoms: _326  and  _327
REMARK  134  A    between atoms: _329  and  _331
REMARK  135  A    between atoms: _331  and  _332
REMARK  136  A    between atoms: _335  and  _337
REMARK  137  A    between atoms: _337  and  _338
REMARK  138  A    between atoms: _337  and  _340
REMARK  139  A    between atoms: _340  and  _341
REMARK  140  A    between atoms: _344  and  _346
REMARK  141  A    between atoms: _346  and  _347
REMARK  142  A    between atoms: _346  and  _349
REMARK  143  A    between atoms: _349  and  _350
REMARK  144  A    between atoms: _355  and  _357
REMARK  145  A    between atoms: _357  and  _358
REMARK  146  A    between atoms: _357  and  _360
REMARK  147  A    between atoms: _360  and  _361
REMARK  148  A    between atoms: _364  and  _366
REMARK  149  A    between atoms: _366  and  _367
REMARK  150  A    between atoms: _366  and  _369
REMARK  151  A    between atoms: _372  and  _374
REMARK  152  A    between atoms: _374  and  _375
REMARK  153  A    between atoms: _374  and  _377
REMARK  154  A    between atoms: _377  and  _378
REMARK  155  A    between atoms: _381  and  _383
REMARK  156  A    between atoms: _383  and  _384
REMARK  157  A    between atoms: _383  and  _386
REMARK  158  A    between atoms: _386  and  _387
REMARK  159  A    between atoms: _387  and  _388
REMARK  160  A    between atoms: _388  and  _389
REMARK  161  A    between atoms: _389  and  _390
REMARK  162  A    between atoms: _394  and  _396
REMARK  163  A    between atoms: _396  and  _397
REMARK  164  A    between atoms: _396  and  _399
REMARK  165  A    between atoms: _399  and  _400
REMARK  166  A    between atoms: _400  and  _401
REMARK  167  A    between atoms: _403  and  _405
REMARK  168  A    between atoms: _405  and  _406
REMARK  169  A    between atoms: _405  and  _408
REMARK  170  A    between atoms: _408  and  _409
REMARK  171  A    between atoms: _412  and  _414
REMARK  172  A    between atoms: _414  and  _415
REMARK  173  A    between atoms: _417  and  _419
REMARK  174  A    between atoms: _419  and  _420
REMARK  175  A    between atoms: _422  and  _424
REMARK  176  A    between atoms: _424  and  _425
REMARK  177  A    between atoms: _424  and  _427
REMARK  178  A    between atoms: _427  and  _428
REMARK  179  A    between atoms: _431  and  _433
REMARK  180  A    between atoms: _433  and  _434
REMARK  181  A    between atoms: _436  and  _438
REMARK  182  A    between atoms: _438  and  _439
REMARK  183  A    between atoms: _441  and  _443
REMARK  184  A    between atoms: _443  and  _444
REMARK  185  A    between atoms: _443  and  _446
REMARK  186  A    between atoms: _446  and  _447
REMARK  187  A    between atoms: _453  and  _455
REMARK  188  A    between atoms: _455  and  _456
REMARK  189  A    between atoms: _455  and  _458
REMARK  190  A    between atoms: _458  and  _459
REMARK  191  A    between atoms: _462  and  _464
REMARK  192  A    between atoms: _464  and  _465
REMARK  193  A    between atoms: _464  and  _467
REMARK  194  A    between atoms: _470  and  _472
REMARK  195  A    between atoms: _472  and  _473
REMARK  196  A    between atoms: _472  and  _475
REMARK  197  A    between atoms: _475  and  _476
REMARK  198  A    between atoms: _479  and  _481
REMARK  199  A    between atoms: _481  and  _482
REMARK  200  A    between atoms: _481  and  _484
REMARK  201  A    between atoms: _484  and  _485
REMARK  202  A    between atoms: _489  and  _490
REMARK  203  A    between atoms: _495  and  _497
REMARK  204  A    between atoms: _497  and  _498
REMARK  205  A    between atoms: _497  and  _500
REMARK  206  A    between atoms: _503  and  _505
REMARK  207  A    between atoms: _505  and  _506
REMARK  208  A    between atoms: _505  and  _508
REMARK  209  A    between atoms: _508  and  _509
REMARK  210  A    between atoms: _514  and  _516
REMARK  211  A    between atoms: _516  and  _517
REMARK  212  A    between atoms: _516  and  _519
REMARK  213  A    between atoms: _519  and  _520
REMARK  214  A    between atoms: _523  and  _525
REMARK  215  A    between atoms: _525  and  _526
REMARK  216  A    between atoms: _525  and  _528
REMARK  217  A    between atoms: _528  and  _529
REMARK  218  A    between atoms: _532  and  _534
REMARK  219  A    between atoms: _534  and  _535
REMARK  220  A    between atoms: _537  and  _539
REMARK  221  A    between atoms: _539  and  _540
REMARK  222  A    between atoms: _539  and  _542
REMARK  223  A    between atoms: _542  and  _543
REMARK  224  A    between atoms: _543  and  _544
REMARK  225  A    between atoms: _544  and  _545
REMARK                            x       y       z     vdW  Elec       q    Type
REMARK                         _______ _______ _______ _____ _____    ______ ____
ROOT
ATOM      1  O   HOH     1      -0.779  23.704  23.985  0.00  0.00    +0.000 OA
ENDROOT
TORSDOF 0
REMARK  Name = ../refined-set-2016/2pym/2pym_pocket.pdb
REMARK  225 active torsions:
REMARK  status: ('A' for Active; 'I' for Inactive)
REMARK    1  A    between atoms: _1  and  _3
REMARK    2  A    between atoms: _3  and  _4
REMARK    3  A    between atoms: _3  and  _6
REMARK    4  A    between atoms: _6  and  _7
REMARK    5  A    between atoms: _7  and  _8
REMARK    6  A    between atoms: _8  and  _9
REMARK    7  A    between atoms: _18  and  _20
REMARK    8  A    between atoms: _20  and  _21
REMARK    9  A    between atoms: _20  and  _23
REMARK   10  A    between atoms: _23  and  _24
REMARK   11  A    between atoms: _27  and  _29
REMARK   12  A    between atoms: _29  and  _30
REMARK   13  A    between atoms: _29  and  _32
REMARK   14  A    between atoms: _32  and  _33
REMARK   15  A    between atoms: _36  and  _38
REMARK   16  A    between atoms: _38  and  _39
REMARK   17  A    between atoms: _38  and  _41
REMARK   18  A    between atoms: _41  and  _42
REMARK   19  A    between atoms: _45  and  _47
REMARK   20  A    between atoms: _47  and  _48
REMARK   21  A    between atoms: _47  and  _50
REMARK   22  A    between atoms: _50  and  _51
REMARK   23  A    between atoms: _54  and  _56
REMARK   24  A    between atoms: _56  and  _57
REMARK   25  A    between atoms: _59  and  _61
REMARK   26  A    between atoms: _61  and  _62
REMARK   27  A    between atoms: _65  and  _67
REMARK   28  A    between atoms: _67  and  _68
REMARK   29  A    between atoms: _67  and  _70
REMARK   30  A    between atoms: _70  and  _71
REMARK   31  A    between atoms: _74  and  _76
REMARK   32  A    between atoms: _76  and  _77
REMARK   33  A    between atoms: _76  and  _79
REMARK   34  A    between atoms: _79  and  _80
REMARK   35  A    between atoms: _85  and  _87
REMARK   36  A    between atoms: _87  and  _88
REMARK   37  A    between atoms: _87  and  _90
REMARK   38  A    between atoms: _90  and  _91
REMARK   39  A    between atoms: _94  and  _96
REMARK   40  A    between atoms: _96  and  _97
REMARK   41  A    between atoms: _96  and  _99
REMARK   42  A    between atoms: _102  and  _104
REMARK   43  A    between atoms: _104  and  _105
REMARK   44  A    between atoms: _104  and  _107
REMARK   45  A    between atoms: _107  and  _108
REMARK   46  A    between atoms: _108  and  _109
REMARK   47  A    between atoms: _109  and  _110
REMARK   48  A    between atoms: _110  and  _111
REMARK   49  A    between atoms: _115  and  _117
REMARK   50  A    between atoms: _117  and  _118
REMARK   51  A    between atoms: _117  and  _120
REMARK   52  A    between atoms: _120  and  _121
REMARK   53  A    between atoms: _124  and  _126
REMARK   54  A    between atoms: _126  and  _127
REMARK   55  A    between atoms: _129  and  _131
REMARK   56  A    between atoms: _131  and  _132
REMARK   57  A    between atoms: _134  and  _136
REMARK   58  A    between atoms: _136  and  _137
REMARK   59  A    between atoms: _136  and  _139
REMARK   60  A    between atoms: _139  and  _140
REMARK   61  A    between atoms: _143  and  _145
REMARK   62  A    between atoms: _145  and  _146
REMARK   63  A    between atoms: _148  and  _150
REMARK   64  A    between atoms: _150  and  _151
REMARK   65  A    between atoms: _153  and  _155
REMARK   66  A    between atoms: _155  and  _156
REMARK   67  A    between atoms: _155  and  _158
REMARK   68  A    between atoms: _158  and  _159
REMARK   69  A    between atoms: _162  and  _164
REMARK   70  A    between atoms: _164  and  _165
REMARK   71  A    between atoms: _164  and  _167
REMARK   72  A    between atoms: _167  and  _168
REMARK   73  A    between atoms: _172  and  _173
REMARK   74  A    between atoms: _178  and  _180
REMARK   75  A    between atoms: _180  and  _181
REMARK   76  A    between atoms: _180  and  _183
REMARK   77  A    between atoms: _183  and  _184
REMARK   78  A    between atoms: _188  and  _189
REMARK   79  A    between atoms: _194  and  _196
REMARK   80  A    between atoms: _196  and  _197
REMARK   81  A    between atoms: _196  and  _199
REMARK   82  A    between atoms: _202  and  _204
REMARK   83  A    between atoms: _204  and  _205
REMARK   84  A    between atoms: _204  and  _207
REMARK   85  A    between atoms: _207  and  _208
REMARK   86  A    between atoms: _213  and  _215
REMARK   87  A    between atoms: _215  and  _216
REMARK   88  A    between atoms: _215  and  _218
REMARK   89  A    between atoms: _218  and  _219
REMARK   90  A    between atoms: _222  and  _224
REMARK   91  A    between atoms: _224  and  _225
REMARK   92  A    between atoms: _224  and  _227
REMARK   93  A    between atoms: _227  and  _228
REMARK   94  A    between atoms: _231  and  _233
REMARK   95  A    between atoms: _233  and  _234
REMARK   96  A    between atoms: _236  and  _238
REMARK   97  A    between atoms: _238  and  _239
REMARK   98  A    between atoms: _238  and  _241
REMARK   99  A    between atoms: _241  and  _242
REMARK  100  A    between atoms: _242  and  _243
REMARK  101  A    between atoms: _243  and  _244
REMARK  102  A    between atoms: _253  and  _255
REMARK  103  A    between atoms: _255  and  _256
REMARK  104  A    between atoms: _255  and  _258
REMARK  105  A    between atoms: _258  and  _259
REMARK  106  A    between atoms: _262  and  _264
REMARK  107  A    between atoms: _264  and  _265
REMARK  108  A    between atoms: _264  and  _267
REMARK  109  A    between atoms: _267  and  _268
REMARK  110  A    between atoms: _268  and  _269
REMARK  111  A    between atoms: _269  and  _270
REMARK  112  A    between atoms: _279  and  _281
REMARK  113  A    between atoms: _281  and  _282
REMARK  114  A    between atoms: _281  and  _284
REMARK  115  A    between atoms: _284  and  _285
REMARK  116  A    between atoms: _288  and  _290
REMARK  117  A    between atoms: _290  and  _291
REMARK  118  A    between atoms: _290  and  _293
REMARK  119  A    between atoms: _293  and  _294
REMARK  120  A    between atoms: _297  and  _299
REMARK  121  A    between atoms: _299  and  _300
REMARK  122  A    between atoms: _299  and  _302
REMARK  123  A    between atoms: _302  and  _303
REMARK  124  A    between atoms: _306  and  _308
REMARK  125  A    between atoms: _308  and  _309
REMARK  126  A    between atoms: _308  and  _311
REMARK  127  A    between atoms: _311  and  _312
REMARK  128  A    between atoms: _315  and  _317
REMARK  129  A    between atoms: _317  and  _318
REMARK  130  A    between atoms: _317  and  _320
REMARK  131  A    between atoms: _320  and  _321
REMARK  132  A    between atoms: _324  and  _326
REMARK  133  A    between atoms: _326  and  _327
REMARK  134  A    between atoms: _329  and  _331
REMARK  135  A    between atoms: _331  and  _332
REMARK  136  A    between atoms: _335  and  _337
REMARK  137  A    between atoms: _337  and  _338
REMARK  138  A    between atoms: _337  and  _340
REMARK  139  A    between atoms: _340  and  _341
REMARK  140  A    between atoms: _344  and  _346
REMARK  141  A    between atoms: _346  and  _347
REMARK  142  A    between atoms: _346  and  _349
REMARK  143  A    between atoms: _349  and  _350
REMARK  144  A    between atoms: _355  and  _357
REMARK  145  A    between atoms: _357  and  _358
REMARK  146  A    between atoms: _357  and  _360
REMARK  147  A    between atoms: _360  and  _361
REMARK  148  A    between atoms: _364  and  _366
REMARK  149  A    between atoms: _366  and  _367
REMARK  150  A    between atoms: _366  and  _369
REMARK  151  A    between atoms: _372  and  _374
REMARK  152  A    between atoms: _374  and  _375
REMARK  153  A    between atoms: _374  and  _377
REMARK  154  A    between atoms: _377  and  _378
REMARK  155  A    between atoms: _381  and  _383
REMARK  156  A    between atoms: _383  and  _384
REMARK  157  A    between atoms: _383  and  _386
REMARK  158  A    between atoms: _386  and  _387
REMARK  159  A    between atoms: _387  and  _388
REMARK  160  A    between atoms: _388  and  _389
REMARK  161  A    between atoms: _389  and  _390
REMARK  162  A    between atoms: _394  and  _396
REMARK  163  A    between atoms: _396  and  _397
REMARK  164  A    between atoms: _396  and  _399
REMARK  165  A    between atoms: _399  and  _400
REMARK  166  A    between atoms: _400  and  _401
REMARK  167  A    between atoms: _403  and  _405
REMARK  168  A    between atoms: _405  and  _406
REMARK  169  A    between atoms: _405  and  _408
REMARK  170  A    between atoms: _408  and  _409
REMARK  171  A    between atoms: _412  and  _414
REMARK  172  A    between atoms: _414  and  _415
REMARK  173  A    between atoms: _417  and  _419
REMARK  174  A    between atoms: _419  and  _420
REMARK  175  A    between atoms: _422  and  _424
REMARK  176  A    between atoms: _424  and  _425
REMARK  177  A    between atoms: _424  and  _427
REMARK  178  A    between atoms: _427  and  _428
REMARK  179  A    between atoms: _431  and  _433
REMARK  180  A    between atoms: _433  and  _434
REMARK  181  A    between atoms: _436  and  _438
REMARK  182  A    between atoms: _438  and  _439
REMARK  183  A    between atoms: _441  and  _443
REMARK  184  A    between atoms: _443  and  _444
REMARK  185  A    between atoms: _443  and  _446
REMARK  186  A    between atoms: _446  and  _447
REMARK  187  A    between atoms: _453  and  _455
REMARK  188  A    between atoms: _455  and  _456
REMARK  189  A    between atoms: _455  and  _458
REMARK  190  A    between atoms: _458  and  _459
REMARK  191  A    between atoms: _462  and  _464
REMARK  192  A    between atoms: _464  and  _465
REMARK  193  A    between atoms: _464  and  _467
REMARK  194  A    between atoms: _470  and  _472
REMARK  195  A    between atoms: _472  and  _473
REMARK  196  A    between atoms: _472  and  _475
REMARK  197  A    between atoms: _475  and  _476
REMARK  198  A    between atoms: _479  and  _481
REMARK  199  A    between atoms: _481  and  _482
REMARK  200  A    between atoms: _481  and  _484
REMARK  201  A    between atoms: _484  and  _485
REMARK  202  A    between atoms: _489  and  _490
REMARK  203  A    between atoms: _495  and  _497
REMARK  204  A    between atoms: _497  and  _498
REMARK  205  A    between atoms: _497  and  _500
REMARK  206  A    between atoms: _503  and  _505
REMARK  207  A    between atoms: _505  and  _506
REMARK  208  A    between atoms: _505  and  _508
REMARK  209  A    between atoms: _508  and  _509
REMARK  210  A    between atoms: _514  and  _516
REMARK  211  A    between atoms: _516  and  _517
REMARK  212  A    between atoms: _516  and  _519
REMARK  213  A    between atoms: _519  and  _520
REMARK  214  A    between atoms: _523  and  _525
REMARK  215  A    between atoms: _525  and  _526
REMARK  216  A    between atoms: _525  and  _528
REMARK  217  A    between atoms: _528  and  _529
REMARK  218  A    between atoms: _532  and  _534
REMARK  219  A    between atoms: _534  and  _535
REMARK  220  A    between atoms: _537  and  _539
REMARK  221  A    between atoms: _539  and  _540
REMARK  222  A    between atoms: _539  and  _542
REMARK  223  A    between atoms: _542  and  _543
REMARK  224  A    between atoms: _543  and  _544
REMARK  225  A    between atoms: _544  and  _545
REMARK                            x       y       z     vdW  Elec       q    Type
REMARK                         _______ _______ _______ _____ _____    ______ ____
ROOT
ATOM      1  O   HOH     1       1.720  23.443  26.631  0.00  0.00    +0.000 OA
ENDROOT
TORSDOF 0
REMARK  Name = ../refined-set-2016/2pym/2pym_pocket.pdb
REMARK  225 active torsions:
REMARK  status: ('A' for Active; 'I' for Inactive)
REMARK    1  A    between atoms: _1  and  _3
REMARK    2  A    between atoms: _3  and  _4
REMARK    3  A    between atoms: _3  and  _6
REMARK    4  A    between atoms: _6  and  _7
REMARK    5  A    between atoms: _7  and  _8
REMARK    6  A    between atoms: _8  and  _9
REMARK    7  A    between atoms: _18  and  _20
REMARK    8  A    between atoms: _20  and  _21
REMARK    9  A    between atoms: _20  and  _23
REMARK   10  A    between atoms: _23  and  _24
REMARK   11  A    between atoms: _27  and  _29
REMARK   12  A    between atoms: _29  and  _30
REMARK   13  A    between atoms: _29  and  _32
REMARK   14  A    between atoms: _32  and  _33
REMARK   15  A    between atoms: _36  and  _38
REMARK   16  A    between atoms: _38  and  _39
REMARK   17  A    between atoms: _38  and  _41
REMARK   18  A    between atoms: _41  and  _42
REMARK   19  A    between atoms: _45  and  _47
REMARK   20  A    between atoms: _47  and  _48
REMARK   21  A    between atoms: _47  and  _50
REMARK   22  A    between atoms: _50  and  _51
REMARK   23  A    between atoms: _54  and  _56
REMARK   24  A    between atoms: _56  and  _57
REMARK   25  A    between atoms: _59  and  _61
REMARK   26  A    between atoms: _61  and  _62
REMARK   27  A    between atoms: _65  and  _67
REMARK   28  A    between atoms: _67  and  _68
REMARK   29  A    between atoms: _67  and  _70
REMARK   30  A    between atoms: _70  and  _71
REMARK   31  A    between atoms: _74  and  _76
REMARK   32  A    between atoms: _76  and  _77
REMARK   33  A    between atoms: _76  and  _79
REMARK   34  A    between atoms: _79  and  _80
REMARK   35  A    between atoms: _85  and  _87
REMARK   36  A    between atoms: _87  and  _88
REMARK   37  A    between atoms: _87  and  _90
REMARK   38  A    between atoms: _90  and  _91
REMARK   39  A    between atoms: _94  and  _96
REMARK   40  A    between atoms: _96  and  _97
REMARK   41  A    between atoms: _96  and  _99
REMARK   42  A    between atoms: _102  and  _104
REMARK   43  A    between atoms: _104  and  _105
REMARK   44  A    between atoms: _104  and  _107
REMARK   45  A    between atoms: _107  and  _108
REMARK   46  A    between atoms: _108  and  _109
REMARK   47  A    between atoms: _109  and  _110
REMARK   48  A    between atoms: _110  and  _111
REMARK   49  A    between atoms: _115  and  _117
REMARK   50  A    between atoms: _117  and  _118
REMARK   51  A    between atoms: _117  and  _120
REMARK   52  A    between atoms: _120  and  _121
REMARK   53  A    between atoms: _124  and  _126
REMARK   54  A    between atoms: _126  and  _127
REMARK   55  A    between atoms: _129  and  _131
REMARK   56  A    between atoms: _131  and  _132
REMARK   57  A    between atoms: _134  and  _136
REMARK   58  A    between atoms: _136  and  _137
REMARK   59  A    between atoms: _136  and  _139
REMARK   60  A    between atoms: _139  and  _140
REMARK   61  A    between atoms: _143  and  _145
REMARK   62  A    between atoms: _145  and  _146
REMARK   63  A    between atoms: _148  and  _150
REMARK   64  A    between atoms: _150  and  _151
REMARK   65  A    between atoms: _153  and  _155
REMARK   66  A    between atoms: _155  and  _156
REMARK   67  A    between atoms: _155  and  _158
REMARK   68  A    between atoms: _158  and  _159
REMARK   69  A    between atoms: _162  and  _164
REMARK   70  A    between atoms: _164  and  _165
REMARK   71  A    between atoms: _164  and  _167
REMARK   72  A    between atoms: _167  and  _168
REMARK   73  A    between atoms: _172  and  _173
REMARK   74  A    between atoms: _178  and  _180
REMARK   75  A    between atoms: _180  and  _181
REMARK   76  A    between atoms: _180  and  _183
REMARK   77  A    between atoms: _183  and  _184
REMARK   78  A    between atoms: _188  and  _189
REMARK   79  A    between atoms: _194  and  _196
REMARK   80  A    between atoms: _196  and  _197
REMARK   81  A    between atoms: _196  and  _199
REMARK   82  A    between atoms: _202  and  _204
REMARK   83  A    between atoms: _204  and  _205
REMARK   84  A    between atoms: _204  and  _207
REMARK   85  A    between atoms: _207  and  _208
REMARK   86  A    between atoms: _213  and  _215
REMARK   87  A    between atoms: _215  and  _216
REMARK   88  A    between atoms: _215  and  _218
REMARK   89  A    between atoms: _218  and  _219
REMARK   90  A    between atoms: _222  and  _224
REMARK   91  A    between atoms: _224  and  _225
REMARK   92  A    between atoms: _224  and  _227
REMARK   93  A    between atoms: _227  and  _228
REMARK   94  A    between atoms: _231  and  _233
REMARK   95  A    between atoms: _233  and  _234
REMARK   96  A    between atoms: _236  and  _238
REMARK   97  A    between atoms: _238  and  _239
REMARK   98  A    between atoms: _238  and  _241
REMARK   99  A    between atoms: _241  and  _242
REMARK  100  A    between atoms: _242  and  _243
REMARK  101  A    between atoms: _243  and  _244
REMARK  102  A    between atoms: _253  and  _255
REMARK  103  A    between atoms: _255  and  _256
REMARK  104  A    between atoms: _255  and  _258
REMARK  105  A    between atoms: _258  and  _259
REMARK  106  A    between atoms: _262  and  _264
REMARK  107  A    between atoms: _264  and  _265
REMARK  108  A    between atoms: _264  and  _267
REMARK  109  A    between atoms: _267  and  _268
REMARK  110  A    between atoms: _268  and  _269
REMARK  111  A    between atoms: _269  and  _270
REMARK  112  A    between atoms: _279  and  _281
REMARK  113  A    between atoms: _281  and  _282
REMARK  114  A    between atoms: _281  and  _284
REMARK  115  A    between atoms: _284  and  _285
REMARK  116  A    between atoms: _288  and  _290
REMARK  117  A    between atoms: _290  and  _291
REMARK  118  A    between atoms: _290  and  _293
REMARK  119  A    between atoms: _293  and  _294
REMARK  120  A    between atoms: _297  and  _299
REMARK  121  A    between atoms: _299  and  _300
REMARK  122  A    between atoms: _299  and  _302
REMARK  123  A    between atoms: _302  and  _303
REMARK  124  A    between atoms: _306  and  _308
REMARK  125  A    between atoms: _308  and  _309
REMARK  126  A    between atoms: _308  and  _311
REMARK  127  A    between atoms: _311  and  _312
REMARK  128  A    between atoms: _315  and  _317
REMARK  129  A    between atoms: _317  and  _318
REMARK  130  A    between atoms: _317  and  _320
REMARK  131  A    between atoms: _320  and  _321
REMARK  132  A    between atoms: _324  and  _326
REMARK  133  A    between atoms: _326  and  _327
REMARK  134  A    between atoms: _329  and  _331
REMARK  135  A    between atoms: _331  and  _332
REMARK  136  A    between atoms: _335  and  _337
REMARK  137  A    between atoms: _337  and  _338
REMARK  138  A    between atoms: _337  and  _340
REMARK  139  A    between atoms: _340  and  _341
REMARK  140  A    between atoms: _344  and  _346
REMARK  141  A    between atoms: _346  and  _347
REMARK  142  A    between atoms: _346  and  _349
REMARK  143  A    between atoms: _349  and  _350
REMARK  144  A    between atoms: _355  and  _357
REMARK  145  A    between atoms: _357  and  _358
REMARK  146  A    between atoms: _357  and  _360
REMARK  147  A    between atoms: _360  and  _361
REMARK  148  A    between atoms: _364  and  _366
REMARK  149  A    between atoms: _366  and  _367
REMARK  150  A    between atoms: _366  and  _369
REMARK  151  A    between atoms: _372  and  _374
REMARK  152  A    between atoms: _374  and  _375
REMARK  153  A    between atoms: _374  and  _377
REMARK  154  A    between atoms: _377  and  _378
REMARK  155  A    between atoms: _381  and  _383
REMARK  156  A    between atoms: _383  and  _384
REMARK  157  A    between atoms: _383  and  _386
REMARK  158  A    between atoms: _386  and  _387
REMARK  159  A    between atoms: _387  and  _388
REMARK  160  A    between atoms: _388  and  _389
REMARK  161  A    between atoms: _389  and  _390
REMARK  162  A    between atoms: _394  and  _396
REMARK  163  A    between atoms: _396  and  _397
REMARK  164  A    between atoms: _396  and  _399
REMARK  165  A    between atoms: _399  and  _400
REMARK  166  A    between atoms: _400  and  _401
REMARK  167  A    between atoms: _403  and  _405
REMARK  168  A    between atoms: _405  and  _406
REMARK  169  A    between atoms: _405  and  _408
REMARK  170  A    between atoms: _408  and  _409
REMARK  171  A    between atoms: _412  and  _414
REMARK  172  A    between atoms: _414  and  _415
REMARK  173  A    between atoms: _417  and  _419
REMARK  174  A    between atoms: _419  and  _420
REMARK  175  A    between atoms: _422  and  _424
REMARK  176  A    between atoms: _424  and  _425
REMARK  177  A    between atoms: _424  and  _427
REMARK  178  A    between atoms: _427  and  _428
REMARK  179  A    between atoms: _431  and  _433
REMARK  180  A    between atoms: _433  and  _434
REMARK  181  A    between atoms: _436  and  _438
REMARK  182  A    between atoms: _438  and  _439
REMARK  183  A    between atoms: _441  and  _443
REMARK  184  A    between atoms: _443  and  _444
REMARK  185  A    between atoms: _443  and  _446
REMARK  186  A    between atoms: _446  and  _447
REMARK  187  A    between atoms: _453  and  _455
REMARK  188  A    between atoms: _455  and  _456
REMARK  189  A    between atoms: _455  and  _458
REMARK  190  A    between atoms: _458  and  _459
REMARK  191  A    between atoms: _462  and  _464
REMARK  192  A    between atoms: _464  and  _465
REMARK  193  A    between atoms: _464  and  _467
REMARK  194  A    between atoms: _470  and  _472
REMARK  195  A    between atoms: _472  and  _473
REMARK  196  A    between atoms: _472  and  _475
REMARK  197  A    between atoms: _475  and  _476
REMARK  198  A    between atoms: _479  and  _481
REMARK  199  A    between atoms: _481  and  _482
REMARK  200  A    between atoms: _481  and  _484
REMARK  201  A    between atoms: _484  and  _485
REMARK  202  A    between atoms: _489  and  _490
REMARK  203  A    between atoms: _495  and  _497
REMARK  204  A    between atoms: _497  and  _498
REMARK  205  A    between atoms: _497  and  _500
REMARK  206  A    between atoms: _503  and  _505
REMARK  207  A    between atoms: _505  and  _506
REMARK  208  A    between atoms: _505  and  _508
REMARK  209  A    between atoms: _508  and  _509
REMARK  210  A    between atoms: _514  and  _516
REMARK  211  A    between atoms: _516  and  _517
REMARK  212  A    between atoms: _516  and  _519
REMARK  213  A    between atoms: _519  and  _520
REMARK  214  A    between atoms: _523  and  _525
REMARK  215  A    between atoms: _525  and  _526
REMARK  216  A    between atoms: _525  and  _528
REMARK  217  A    between atoms: _528  and  _529
REMARK  218  A    between atoms: _532  and  _534
REMARK  219  A    between atoms: _534  and  _535
REMARK  220  A    between atoms: _537  and  _539
REMARK  221  A    between atoms: _539  and  _540
REMARK  222  A    between atoms: _539  and  _542
REMARK  223  A    between atoms: _542  and  _543
REMARK  224  A    between atoms: _543  and  _544
REMARK  225  A    between atoms: _544  and  _545
REMARK                            x       y       z     vdW  Elec       q    Type
REMARK                         _______ _______ _______ _____ _____    ______ ____
ROOT
ATOM      1  O   HOH     1     -13.865  12.632  36.475  0.00  0.00    +0.000 OA
ENDROOT
TORSDOF 0
REMARK  Name = ../refined-set-2016/2pym/2pym_pocket.pdb
REMARK  225 active torsions:
REMARK  status: ('A' for Active; 'I' for Inactive)
REMARK    1  A    between atoms: _1  and  _3
REMARK    2  A    between atoms: _3  and  _4
REMARK    3  A    between atoms: _3  and  _6
REMARK    4  A    between atoms: _6  and  _7
REMARK    5  A    between atoms: _7  and  _8
REMARK    6  A    between atoms: _8  and  _9
REMARK    7  A    between atoms: _18  and  _20
REMARK    8  A    between atoms: _20  and  _21
REMARK    9  A    between atoms: _20  and  _23
REMARK   10  A    between atoms: _23  and  _24
REMARK   11  A    between atoms: _27  and  _29
REMARK   12  A    between atoms: _29  and  _30
REMARK   13  A    between atoms: _29  and  _32
REMARK   14  A    between atoms: _32  and  _33
REMARK   15  A    between atoms: _36  and  _38
REMARK   16  A    between atoms: _38  and  _39
REMARK   17  A    between atoms: _38  and  _41
REMARK   18  A    between atoms: _41  and  _42
REMARK   19  A    between atoms: _45  and  _47
REMARK   20  A    between atoms: _47  and  _48
REMARK   21  A    between atoms: _47  and  _50
REMARK   22  A    between atoms: _50  and  _51
REMARK   23  A    between atoms: _54  and  _56
REMARK   24  A    between atoms: _56  and  _57
REMARK   25  A    between atoms: _59  and  _61
REMARK   26  A    between atoms: _61  and  _62
REMARK   27  A    between atoms: _65  and  _67
REMARK   28  A    between atoms: _67  and  _68
REMARK   29  A    between atoms: _67  and  _70
REMARK   30  A    between atoms: _70  and  _71
REMARK   31  A    between atoms: _74  and  _76
REMARK   32  A    between atoms: _76  and  _77
REMARK   33  A    between atoms: _76  and  _79
REMARK   34  A    between atoms: _79  and  _80
REMARK   35  A    between atoms: _85  and  _87
REMARK   36  A    between atoms: _87  and  _88
REMARK   37  A    between atoms: _87  and  _90
REMARK   38  A    between atoms: _90  and  _91
REMARK   39  A    between atoms: _94  and  _96
REMARK   40  A    between atoms: _96  and  _97
REMARK   41  A    between atoms: _96  and  _99
REMARK   42  A    between atoms: _102  and  _104
REMARK   43  A    between atoms: _104  and  _105
REMARK   44  A    between atoms: _104  and  _107
REMARK   45  A    between atoms: _107  and  _108
REMARK   46  A    between atoms: _108  and  _109
REMARK   47  A    between atoms: _109  and  _110
REMARK   48  A    between atoms: _110  and  _111
REMARK   49  A    between atoms: _115  and  _117
REMARK   50  A    between atoms: _117  and  _118
REMARK   51  A    between atoms: _117  and  _120
REMARK   52  A    between atoms: _120  and  _121
REMARK   53  A    between atoms: _124  and  _126
REMARK   54  A    between atoms: _126  and  _127
REMARK   55  A    between atoms: _129  and  _131
REMARK   56  A    between atoms: _131  and  _132
REMARK   57  A    between atoms: _134  and  _136
REMARK   58  A    between atoms: _136  and  _137
REMARK   59  A    between atoms: _136  and  _139
REMARK   60  A    between atoms: _139  and  _140
REMARK   61  A    between atoms: _143  and  _145
REMARK   62  A    between atoms: _145  and  _146
REMARK   63  A    between atoms: _148  and  _150
REMARK   64  A    between atoms: _150  and  _151
REMARK   65  A    between atoms: _153  and  _155
REMARK   66  A    between atoms: _155  and  _156
REMARK   67  A    between atoms: _155  and  _158
REMARK   68  A    between atoms: _158  and  _159
REMARK   69  A    between atoms: _162  and  _164
REMARK   70  A    between atoms: _164  and  _165
REMARK   71  A    between atoms: _164  and  _167
REMARK   72  A    between atoms: _167  and  _168
REMARK   73  A    between atoms: _172  and  _173
REMARK   74  A    between atoms: _178  and  _180
REMARK   75  A    between atoms: _180  and  _181
REMARK   76  A    between atoms: _180  and  _183
REMARK   77  A    between atoms: _183  and  _184
REMARK   78  A    between atoms: _188  and  _189
REMARK   79  A    between atoms: _194  and  _196
REMARK   80  A    between atoms: _196  and  _197
REMARK   81  A    between atoms: _196  and  _199
REMARK   82  A    between atoms: _202  and  _204
REMARK   83  A    between atoms: _204  and  _205
REMARK   84  A    between atoms: _204  and  _207
REMARK   85  A    between atoms: _207  and  _208
REMARK   86  A    between atoms: _213  and  _215
REMARK   87  A    between atoms: _215  and  _216
REMARK   88  A    between atoms: _215  and  _218
REMARK   89  A    between atoms: _218  and  _219
REMARK   90  A    between atoms: _222  and  _224
REMARK   91  A    between atoms: _224  and  _225
REMARK   92  A    between atoms: _224  and  _227
REMARK   93  A    between atoms: _227  and  _228
REMARK   94  A    between atoms: _231  and  _233
REMARK   95  A    between atoms: _233  and  _234
REMARK   96  A    between atoms: _236  and  _238
REMARK   97  A    between atoms: _238  and  _239
REMARK   98  A    between atoms: _238  and  _241
REMARK   99  A    between atoms: _241  and  _242
REMARK  100  A    between atoms: _242  and  _243
REMARK  101  A    between atoms: _243  and  _244
REMARK  102  A    between atoms: _253  and  _255
REMARK  103  A    between atoms: _255  and  _256
REMARK  104  A    between atoms: _255  and  _258
REMARK  105  A    between atoms: _258  and  _259
REMARK  106  A    between atoms: _262  and  _264
REMARK  107  A    between atoms: _264  and  _265
REMARK  108  A    between atoms: _264  and  _267
REMARK  109  A    between atoms: _267  and  _268
REMARK  110  A    between atoms: _268  and  _269
REMARK  111  A    between atoms: _269  and  _270
REMARK  112  A    between atoms: _279  and  _281
REMARK  113  A    between atoms: _281  and  _282
REMARK  114  A    between atoms: _281  and  _284
REMARK  115  A    between atoms: _284  and  _285
REMARK  116  A    between atoms: _288  and  _290
REMARK  117  A    between atoms: _290  and  _291
REMARK  118  A    between atoms: _290  and  _293
REMARK  119  A    between atoms: _293  and  _294
REMARK  120  A    between atoms: _297  and  _299
REMARK  121  A    between atoms: _299  and  _300
REMARK  122  A    between atoms: _299  and  _302
REMARK  123  A    between atoms: _302  and  _303
REMARK  124  A    between atoms: _306  and  _308
REMARK  125  A    between atoms: _308  and  _309
REMARK  126  A    between atoms: _308  and  _311
REMARK  127  A    between atoms: _311  and  _312
REMARK  128  A    between atoms: _315  and  _317
REMARK  129  A    between atoms: _317  and  _318
REMARK  130  A    between atoms: _317  and  _320
REMARK  131  A    between atoms: _320  and  _321
REMARK  132  A    between atoms: _324  and  _326
REMARK  133  A    between atoms: _326  and  _327
REMARK  134  A    between atoms: _329  and  _331
REMARK  135  A    between atoms: _331  and  _332
REMARK  136  A    between atoms: _335  and  _337
REMARK  137  A    between atoms: _337  and  _338
REMARK  138  A    between atoms: _337  and  _340
REMARK  139  A    between atoms: _340  and  _341
REMARK  140  A    between atoms: _344  and  _346
REMARK  141  A    between atoms: _346  and  _347
REMARK  142  A    between atoms: _346  and  _349
REMARK  143  A    between atoms: _349  and  _350
REMARK  144  A    between atoms: _355  and  _357
REMARK  145  A    between atoms: _357  and  _358
REMARK  146  A    between atoms: _357  and  _360
REMARK  147  A    between atoms: _360  and  _361
REMARK  148  A    between atoms: _364  and  _366
REMARK  149  A    between atoms: _366  and  _367
REMARK  150  A    between atoms: _366  and  _369
REMARK  151  A    between atoms: _372  and  _374
REMARK  152  A    between atoms: _374  and  _375
REMARK  153  A    between atoms: _374  and  _377
REMARK  154  A    between atoms: _377  and  _378
REMARK  155  A    between atoms: _381  and  _383
REMARK  156  A    between atoms: _383  and  _384
REMARK  157  A    between atoms: _383  and  _386
REMARK  158  A    between atoms: _386  and  _387
REMARK  159  A    between atoms: _387  and  _388
REMARK  160  A    between atoms: _388  and  _389
REMARK  161  A    between atoms: _389  and  _390
REMARK  162  A    between atoms: _394  and  _396
REMARK  163  A    between atoms: _396  and  _397
REMARK  164  A    between atoms: _396  and  _399
REMARK  165  A    between atoms: _399  and  _400
REMARK  166  A    between atoms: _400  and  _401
REMARK  167  A    between atoms: _403  and  _405
REMARK  168  A    between atoms: _405  and  _406
REMARK  169  A    between atoms: _405  and  _408
REMARK  170  A    between atoms: _408  and  _409
REMARK  171  A    between atoms: _412  and  _414
REMARK  172  A    between atoms: _414  and  _415
REMARK  173  A    between atoms: _417  and  _419
REMARK  174  A    between atoms: _419  and  _420
REMARK  175  A    between atoms: _422  and  _424
REMARK  176  A    between atoms: _424  and  _425
REMARK  177  A    between atoms: _424  and  _427
REMARK  178  A    between atoms: _427  and  _428
REMARK  179  A    between atoms: _431  and  _433
REMARK  180  A    between atoms: _433  and  _434
REMARK  181  A    between atoms: _436  and  _438
REMARK  182  A    between atoms: _438  and  _439
REMARK  183  A    between atoms: _441  and  _443
REMARK  184  A    between atoms: _443  and  _444
REMARK  185  A    between atoms: _443  and  _446
REMARK  186  A    between atoms: _446  and  _447
REMARK  187  A    between atoms: _453  and  _455
REMARK  188  A    between atoms: _455  and  _456
REMARK  189  A    between atoms: _455  and  _458
REMARK  190  A    between atoms: _458  and  _459
REMARK  191  A    between atoms: _462  and  _464
REMARK  192  A    between atoms: _464  and  _465
REMARK  193  A    between atoms: _464  and  _467
REMARK  194  A    between atoms: _470  and  _472
REMARK  195  A    between atoms: _472  and  _473
REMARK  196  A    between atoms: _472  and  _475
REMARK  197  A    between atoms: _475  and  _476
REMARK  198  A    between atoms: _479  and  _481
REMARK  199  A    between atoms: _481  and  _482
REMARK  200  A    between atoms: _481  and  _484
REMARK  201  A    between atoms: _484  and  _485
REMARK  202  A    between atoms: _489  and  _490
REMARK  203  A    between atoms: _495  and  _497
REMARK  204  A    between atoms: _497  and  _498
REMARK  205  A    between atoms: _497  and  _500
REMARK  206  A    between atoms: _503  and  _505
REMARK  207  A    between atoms: _505  and  _506
REMARK  208  A    between atoms: _505  and  _508
REMARK  209  A    between atoms: _508  and  _509
REMARK  210  A    between atoms: _514  and  _516
REMARK  211  A    between atoms: _516  and  _517
REMARK  212  A    between atoms: _516  and  _519
REMARK  213  A    between atoms: _519  and  _520
REMARK  214  A    between atoms: _523  and  _525
REMARK  215  A    between atoms: _525  and  _526
REMARK  216  A    between atoms: _525  and  _528
REMARK  217  A    between atoms: _528  and  _529
REMARK  218  A    between atoms: _532  and  _534
REMARK  219  A    between atoms: _534  and  _535
REMARK  220  A    between atoms: _537  and  _539
REMARK  221  A    between atoms: _539  and  _540
REMARK  222  A    between atoms: _539  and  _542
REMARK  223  A    between atoms: _542  and  _543
REMARK  224  A    between atoms: _543  and  _544
REMARK  225  A    between atoms: _544  and  _545
REMARK                            x       y       z     vdW  Elec       q    Type
REMARK                         _______ _______ _______ _____ _____    ______ ____
ROOT
ATOM      1  O   HOH     1       2.705  21.217  25.642  0.00  0.00    +0.000 OA
ENDROOT
TORSDOF 0
REMARK  Name = ../refined-set-2016/2pym/2pym_pocket.pdb
REMARK  225 active torsions:
REMARK  status: ('A' for Active; 'I' for Inactive)
REMARK    1  A    between atoms: _1  and  _3
REMARK    2  A    between atoms: _3  and  _4
REMARK    3  A    between atoms: _3  and  _6
REMARK    4  A    between atoms: _6  and  _7
REMARK    5  A    between atoms: _7  and  _8
REMARK    6  A    between atoms: _8  and  _9
REMARK    7  A    between atoms: _18  and  _20
REMARK    8  A    between atoms: _20  and  _21
REMARK    9  A    between atoms: _20  and  _23
REMARK   10  A    between atoms: _23  and  _24
REMARK   11  A    between atoms: _27  and  _29
REMARK   12  A    between atoms: _29  and  _30
REMARK   13  A    between atoms: _29  and  _32
REMARK   14  A    between atoms: _32  and  _33
REMARK   15  A    between atoms: _36  and  _38
REMARK   16  A    between atoms: _38  and  _39
REMARK   17  A    between atoms: _38  and  _41
REMARK   18  A    between atoms: _41  and  _42
REMARK   19  A    between atoms: _45  and  _47
REMARK   20  A    between atoms: _47  and  _48
REMARK   21  A    between atoms: _47  and  _50
REMARK   22  A    between atoms: _50  and  _51
REMARK   23  A    between atoms: _54  and  _56
REMARK   24  A    between atoms: _56  and  _57
REMARK   25  A    between atoms: _59  and  _61
REMARK   26  A    between atoms: _61  and  _62
REMARK   27  A    between atoms: _65  and  _67
REMARK   28  A    between atoms: _67  and  _68
REMARK   29  A    between atoms: _67  and  _70
REMARK   30  A    between atoms: _70  and  _71
REMARK   31  A    between atoms: _74  and  _76
REMARK   32  A    between atoms: _76  and  _77
REMARK   33  A    between atoms: _76  and  _79
REMARK   34  A    between atoms: _79  and  _80
REMARK   35  A    between atoms: _85  and  _87
REMARK   36  A    between atoms: _87  and  _88
REMARK   37  A    between atoms: _87  and  _90
REMARK   38  A    between atoms: _90  and  _91
REMARK   39  A    between atoms: _94  and  _96
REMARK   40  A    between atoms: _96  and  _97
REMARK   41  A    between atoms: _96  and  _99
REMARK   42  A    between atoms: _102  and  _104
REMARK   43  A    between atoms: _104  and  _105
REMARK   44  A    between atoms: _104  and  _107
REMARK   45  A    between atoms: _107  and  _108
REMARK   46  A    between atoms: _108  and  _109
REMARK   47  A    between atoms: _109  and  _110
REMARK   48  A    between atoms: _110  and  _111
REMARK   49  A    between atoms: _115  and  _117
REMARK   50  A    between atoms: _117  and  _118
REMARK   51  A    between atoms: _117  and  _120
REMARK   52  A    between atoms: _120  and  _121
REMARK   53  A    between atoms: _124  and  _126
REMARK   54  A    between atoms: _126  and  _127
REMARK   55  A    between atoms: _129  and  _131
REMARK   56  A    between atoms: _131  and  _132
REMARK   57  A    between atoms: _134  and  _136
REMARK   58  A    between atoms: _136  and  _137
REMARK   59  A    between atoms: _136  and  _139
REMARK   60  A    between atoms: _139  and  _140
REMARK   61  A    between atoms: _143  and  _145
REMARK   62  A    between atoms: _145  and  _146
REMARK   63  A    between atoms: _148  and  _150
REMARK   64  A    between atoms: _150  and  _151
REMARK   65  A    between atoms: _153  and  _155
REMARK   66  A    between atoms: _155  and  _156
REMARK   67  A    between atoms: _155  and  _158
REMARK   68  A    between atoms: _158  and  _159
REMARK   69  A    between atoms: _162  and  _164
REMARK   70  A    between atoms: _164  and  _165
REMARK   71  A    between atoms: _164  and  _167
REMARK   72  A    between atoms: _167  and  _168
REMARK   73  A    between atoms: _172  and  _173
REMARK   74  A    between atoms: _178  and  _180
REMARK   75  A    between atoms: _180  and  _181
REMARK   76  A    between atoms: _180  and  _183
REMARK   77  A    between atoms: _183  and  _184
REMARK   78  A    between atoms: _188  and  _189
REMARK   79  A    between atoms: _194  and  _196
REMARK   80  A    between atoms: _196  and  _197
REMARK   81  A    between atoms: _196  and  _199
REMARK   82  A    between atoms: _202  and  _204
REMARK   83  A    between atoms: _204  and  _205
REMARK   84  A    between atoms: _204  and  _207
REMARK   85  A    between atoms: _207  and  _208
REMARK   86  A    between atoms: _213  and  _215
REMARK   87  A    between atoms: _215  and  _216
REMARK   88  A    between atoms: _215  and  _218
REMARK   89  A    between atoms: _218  and  _219
REMARK   90  A    between atoms: _222  and  _224
REMARK   91  A    between atoms: _224  and  _225
REMARK   92  A    between atoms: _224  and  _227
REMARK   93  A    between atoms: _227  and  _228
REMARK   94  A    between atoms: _231  and  _233
REMARK   95  A    between atoms: _233  and  _234
REMARK   96  A    between atoms: _236  and  _238
REMARK   97  A    between atoms: _238  and  _239
REMARK   98  A    between atoms: _238  and  _241
REMARK   99  A    between atoms: _241  and  _242
REMARK  100  A    between atoms: _242  and  _243
REMARK  101  A    between atoms: _243  and  _244
REMARK  102  A    between atoms: _253  and  _255
REMARK  103  A    between atoms: _255  and  _256
REMARK  104  A    between atoms: _255  and  _258
REMARK  105  A    between atoms: _258  and  _259
REMARK  106  A    between atoms: _262  and  _264
REMARK  107  A    between atoms: _264  and  _265
REMARK  108  A    between atoms: _264  and  _267
REMARK  109  A    between atoms: _267  and  _268
REMARK  110  A    between atoms: _268  and  _269
REMARK  111  A    between atoms: _269  and  _270
REMARK  112  A    between atoms: _279  and  _281
REMARK  113  A    between atoms: _281  and  _282
REMARK  114  A    between atoms: _281  and  _284
REMARK  115  A    between atoms: _284  and  _285
REMARK  116  A    between atoms: _288  and  _290
REMARK  117  A    between atoms: _290  and  _291
REMARK  118  A    between atoms: _290  and  _293
REMARK  119  A    between atoms: _293  and  _294
REMARK  120  A    between atoms: _297  and  _299
REMARK  121  A    between atoms: _299  and  _300
REMARK  122  A    between atoms: _299  and  _302
REMARK  123  A    between atoms: _302  and  _303
REMARK  124  A    between atoms: _306  and  _308
REMARK  125  A    between atoms: _308  and  _309
REMARK  126  A    between atoms: _308  and  _311
REMARK  127  A    between atoms: _311  and  _312
REMARK  128  A    between atoms: _315  and  _317
REMARK  129  A    between atoms: _317  and  _318
REMARK  130  A    between atoms: _317  and  _320
REMARK  131  A    between atoms: _320  and  _321
REMARK  132  A    between atoms: _324  and  _326
REMARK  133  A    between atoms: _326  and  _327
REMARK  134  A    between atoms: _329  and  _331
REMARK  135  A    between atoms: _331  and  _332
REMARK  136  A    between atoms: _335  and  _337
REMARK  137  A    between atoms: _337  and  _338
REMARK  138  A    between atoms: _337  and  _340
REMARK  139  A    between atoms: _340  and  _341
REMARK  140  A    between atoms: _344  and  _346
REMARK  141  A    between atoms: _346  and  _347
REMARK  142  A    between atoms: _346  and  _349
REMARK  143  A    between atoms: _349  and  _350
REMARK  144  A    between atoms: _355  and  _357
REMARK  145  A    between atoms: _357  and  _358
REMARK  146  A    between atoms: _357  and  _360
REMARK  147  A    between atoms: _360  and  _361
REMARK  148  A    between atoms: _364  and  _366
REMARK  149  A    between atoms: _366  and  _367
REMARK  150  A    between atoms: _366  and  _369
REMARK  151  A    between atoms: _372  and  _374
REMARK  152  A    between atoms: _374  and  _375
REMARK  153  A    between atoms: _374  and  _377
REMARK  154  A    between atoms: _377  and  _378
REMARK  155  A    between atoms: _381  and  _383
REMARK  156  A    between atoms: _383  and  _384
REMARK  157  A    between atoms: _383  and  _386
REMARK  158  A    between atoms: _386  and  _387
REMARK  159  A    between atoms: _387  and  _388
REMARK  160  A    between atoms: _388  and  _389
REMARK  161  A    between atoms: _389  and  _390
REMARK  162  A    between atoms: _394  and  _396
REMARK  163  A    between atoms: _396  and  _397
REMARK  164  A    between atoms: _396  and  _399
REMARK  165  A    between atoms: _399  and  _400
REMARK  166  A    between atoms: _400  and  _401
REMARK  167  A    between atoms: _403  and  _405
REMARK  168  A    between atoms: _405  and  _406
REMARK  169  A    between atoms: _405  and  _408
REMARK  170  A    between atoms: _408  and  _409
REMARK  171  A    between atoms: _412  and  _414
REMARK  172  A    between atoms: _414  and  _415
REMARK  173  A    between atoms: _417  and  _419
REMARK  174  A    between atoms: _419  and  _420
REMARK  175  A    between atoms: _422  and  _424
REMARK  176  A    between atoms: _424  and  _425
REMARK  177  A    between atoms: _424  and  _427
REMARK  178  A    between atoms: _427  and  _428
REMARK  179  A    between atoms: _431  and  _433
REMARK  180  A    between atoms: _433  and  _434
REMARK  181  A    between atoms: _436  and  _438
REMARK  182  A    between atoms: _438  and  _439
REMARK  183  A    between atoms: _441  and  _443
REMARK  184  A    between atoms: _443  and  _444
REMARK  185  A    between atoms: _443  and  _446
REMARK  186  A    between atoms: _446  and  _447
REMARK  187  A    between atoms: _453  and  _455
REMARK  188  A    between atoms: _455  and  _456
REMARK  189  A    between atoms: _455  and  _458
REMARK  190  A    between atoms: _458  and  _459
REMARK  191  A    between atoms: _462  and  _464
REMARK  192  A    between atoms: _464  and  _465
REMARK  193  A    between atoms: _464  and  _467
REMARK  194  A    between atoms: _470  and  _472
REMARK  195  A    between atoms: _472  and  _473
REMARK  196  A    between atoms: _472  and  _475
REMARK  197  A    between atoms: _475  and  _476
REMARK  198  A    between atoms: _479  and  _481
REMARK  199  A    between atoms: _481  and  _482
REMARK  200  A    between atoms: _481  and  _484
REMARK  201  A    between atoms: _484  and  _485
REMARK  202  A    between atoms: _489  and  _490
REMARK  203  A    between atoms: _495  and  _497
REMARK  204  A    between atoms: _497  and  _498
REMARK  205  A    between atoms: _497  and  _500
REMARK  206  A    between atoms: _503  and  _505
REMARK  207  A    between atoms: _505  and  _506
REMARK  208  A    between atoms: _505  and  _508
REMARK  209  A    between atoms: _508  and  _509
REMARK  210  A    between atoms: _514  and  _516
REMARK  211  A    between atoms: _516  and  _517
REMARK  212  A    between atoms: _516  and  _519
REMARK  213  A    between atoms: _519  and  _520
REMARK  214  A    between atoms: _523  and  _525
REMARK  215  A    between atoms: _525  and  _526
REMARK  216  A    between atoms: _525  and  _528
REMARK  217  A    between atoms: _528  and  _529
REMARK  218  A    between atoms: _532  and  _534
REMARK  219  A    between atoms: _534  and  _535
REMARK  220  A    between atoms: _537  and  _539
REMARK  221  A    between atoms: _539  and  _540
REMARK  222  A    between atoms: _539  and  _542
REMARK  223  A    between atoms: _542  and  _543
REMARK  224  A    between atoms: _543  and  _544
REMARK  225  A    between atoms: _544  and  _545
REMARK                            x       y       z     vdW  Elec       q    Type
REMARK                         _______ _______ _______ _____ _____    ______ ____
ROOT
ATOM      1  O   HOH     1     -10.475  10.132  34.686  0.00  0.00    +0.000 OA
ENDROOT
TORSDOF 0
REMARK  Name = ../refined-set-2016/2pym/2pym_pocket.pdb
REMARK  225 active torsions:
REMARK  status: ('A' for Active; 'I' for Inactive)
REMARK    1  A    between atoms: _1  and  _3
REMARK    2  A    between atoms: _3  and  _4
REMARK    3  A    between atoms: _3  and  _6
REMARK    4  A    between atoms: _6  and  _7
REMARK    5  A    between atoms: _7  and  _8
REMARK    6  A    between atoms: _8  and  _9
REMARK    7  A    between atoms: _18  and  _20
REMARK    8  A    between atoms: _20  and  _21
REMARK    9  A    between atoms: _20  and  _23
REMARK   10  A    between atoms: _23  and  _24
REMARK   11  A    between atoms: _27  and  _29
REMARK   12  A    between atoms: _29  and  _30
REMARK   13  A    between atoms: _29  and  _32
REMARK   14  A    between atoms: _32  and  _33
REMARK   15  A    between atoms: _36  and  _38
REMARK   16  A    between atoms: _38  and  _39
REMARK   17  A    between atoms: _38  and  _41
REMARK   18  A    between atoms: _41  and  _42
REMARK   19  A    between atoms: _45  and  _47
REMARK   20  A    between atoms: _47  and  _48
REMARK   21  A    between atoms: _47  and  _50
REMARK   22  A    between atoms: _50  and  _51
REMARK   23  A    between atoms: _54  and  _56
REMARK   24  A    between atoms: _56  and  _57
REMARK   25  A    between atoms: _59  and  _61
REMARK   26  A    between atoms: _61  and  _62
REMARK   27  A    between atoms: _65  and  _67
REMARK   28  A    between atoms: _67  and  _68
REMARK   29  A    between atoms: _67  and  _70
REMARK   30  A    between atoms: _70  and  _71
REMARK   31  A    between atoms: _74  and  _76
REMARK   32  A    between atoms: _76  and  _77
REMARK   33  A    between atoms: _76  and  _79
REMARK   34  A    between atoms: _79  and  _80
REMARK   35  A    between atoms: _85  and  _87
REMARK   36  A    between atoms: _87  and  _88
REMARK   37  A    between atoms: _87  and  _90
REMARK   38  A    between atoms: _90  and  _91
REMARK   39  A    between atoms: _94  and  _96
REMARK   40  A    between atoms: _96  and  _97
REMARK   41  A    between atoms: _96  and  _99
REMARK   42  A    between atoms: _102  and  _104
REMARK   43  A    between atoms: _104  and  _105
REMARK   44  A    between atoms: _104  and  _107
REMARK   45  A    between atoms: _107  and  _108
REMARK   46  A    between atoms: _108  and  _109
REMARK   47  A    between atoms: _109  and  _110
REMARK   48  A    between atoms: _110  and  _111
REMARK   49  A    between atoms: _115  and  _117
REMARK   50  A    between atoms: _117  and  _118
REMARK   51  A    between atoms: _117  and  _120
REMARK   52  A    between atoms: _120  and  _121
REMARK   53  A    between atoms: _124  and  _126
REMARK   54  A    between atoms: _126  and  _127
REMARK   55  A    between atoms: _129  and  _131
REMARK   56  A    between atoms: _131  and  _132
REMARK   57  A    between atoms: _134  and  _136
REMARK   58  A    between atoms: _136  and  _137
REMARK   59  A    between atoms: _136  and  _139
REMARK   60  A    between atoms: _139  and  _140
REMARK   61  A    between atoms: _143  and  _145
REMARK   62  A    between atoms: _145  and  _146
REMARK   63  A    between atoms: _148  and  _150
REMARK   64  A    between atoms: _150  and  _151
REMARK   65  A    between atoms: _153  and  _155
REMARK   66  A    between atoms: _155  and  _156
REMARK   67  A    between atoms: _155  and  _158
REMARK   68  A    between atoms: _158  and  _159
REMARK   69  A    between atoms: _162  and  _164
REMARK   70  A    between atoms: _164  and  _165
REMARK   71  A    between atoms: _164  and  _167
REMARK   72  A    between atoms: _167  and  _168
REMARK   73  A    between atoms: _172  and  _173
REMARK   74  A    between atoms: _178  and  _180
REMARK   75  A    between atoms: _180  and  _181
REMARK   76  A    between atoms: _180  and  _183
REMARK   77  A    between atoms: _183  and  _184
REMARK   78  A    between atoms: _188  and  _189
REMARK   79  A    between atoms: _194  and  _196
REMARK   80  A    between atoms: _196  and  _197
REMARK   81  A    between atoms: _196  and  _199
REMARK   82  A    between atoms: _202  and  _204
REMARK   83  A    between atoms: _204  and  _205
REMARK   84  A    between atoms: _204  and  _207
REMARK   85  A    between atoms: _207  and  _208
REMARK   86  A    between atoms: _213  and  _215
REMARK   87  A    between atoms: _215  and  _216
REMARK   88  A    between atoms: _215  and  _218
REMARK   89  A    between atoms: _218  and  _219
REMARK   90  A    between atoms: _222  and  _224
REMARK   91  A    between atoms: _224  and  _225
REMARK   92  A    between atoms: _224  and  _227
REMARK   93  A    between atoms: _227  and  _228
REMARK   94  A    between atoms: _231  and  _233
REMARK   95  A    between atoms: _233  and  _234
REMARK   96  A    between atoms: _236  and  _238
REMARK   97  A    between atoms: _238  and  _239
REMARK   98  A    between atoms: _238  and  _241
REMARK   99  A    between atoms: _241  and  _242
REMARK  100  A    between atoms: _242  and  _243
REMARK  101  A    between atoms: _243  and  _244
REMARK  102  A    between atoms: _253  and  _255
REMARK  103  A    between atoms: _255  and  _256
REMARK  104  A    between atoms: _255  and  _258
REMARK  105  A    between atoms: _258  and  _259
REMARK  106  A    between atoms: _262  and  _264
REMARK  107  A    between atoms: _264  and  _265
REMARK  108  A    between atoms: _264  and  _267
REMARK  109  A    between atoms: _267  and  _268
REMARK  110  A    between atoms: _268  and  _269
REMARK  111  A    between atoms: _269  and  _270
REMARK  112  A    between atoms: _279  and  _281
REMARK  113  A    between atoms: _281  and  _282
REMARK  114  A    between atoms: _281  and  _284
REMARK  115  A    between atoms: _284  and  _285
REMARK  116  A    between atoms: _288  and  _290
REMARK  117  A    between atoms: _290  and  _291
REMARK  118  A    between atoms: _290  and  _293
REMARK  119  A    between atoms: _293  and  _294
REMARK  120  A    between atoms: _297  and  _299
REMARK  121  A    between atoms: _299  and  _300
REMARK  122  A    between atoms: _299  and  _302
REMARK  123  A    between atoms: _302  and  _303
REMARK  124  A    between atoms: _306  and  _308
REMARK  125  A    between atoms: _308  and  _309
REMARK  126  A    between atoms: _308  and  _311
REMARK  127  A    between atoms: _311  and  _312
REMARK  128  A    between atoms: _315  and  _317
REMARK  129  A    between atoms: _317  and  _318
REMARK  130  A    between atoms: _317  and  _320
REMARK  131  A    between atoms: _320  and  _321
REMARK  132  A    between atoms: _324  and  _326
REMARK  133  A    between atoms: _326  and  _327
REMARK  134  A    between atoms: _329  and  _331
REMARK  135  A    between atoms: _331  and  _332
REMARK  136  A    between atoms: _335  and  _337
REMARK  137  A    between atoms: _337  and  _338
REMARK  138  A    between atoms: _337  and  _340
REMARK  139  A    between atoms: _340  and  _341
REMARK  140  A    between atoms: _344  and  _346
REMARK  141  A    between atoms: _346  and  _347
REMARK  142  A    between atoms: _346  and  _349
REMARK  143  A    between atoms: _349  and  _350
REMARK  144  A    between atoms: _355  and  _357
REMARK  145  A    between atoms: _357  and  _358
REMARK  146  A    between atoms: _357  and  _360
REMARK  147  A    between atoms: _360  and  _361
REMARK  148  A    between atoms: _364  and  _366
REMARK  149  A    between atoms: _366  and  _367
REMARK  150  A    between atoms: _366  and  _369
REMARK  151  A    between atoms: _372  and  _374
REMARK  152  A    between atoms: _374  and  _375
REMARK  153  A    between atoms: _374  and  _377
REMARK  154  A    between atoms: _377  and  _378
REMARK  155  A    between atoms: _381  and  _383
REMARK  156  A    between atoms: _383  and  _384
REMARK  157  A    between atoms: _383  and  _386
REMARK  158  A    between atoms: _386  and  _387
REMARK  159  A    between atoms: _387  and  _388
REMARK  160  A    between atoms: _388  and  _389
REMARK  161  A    between atoms: _389  and  _390
REMARK  162  A    between atoms: _394  and  _396
REMARK  163  A    between atoms: _396  and  _397
REMARK  164  A    between atoms: _396  and  _399
REMARK  165  A    between atoms: _399  and  _400
REMARK  166  A    between atoms: _400  and  _401
REMARK  167  A    between atoms: _403  and  _405
REMARK  168  A    between atoms: _405  and  _406
REMARK  169  A    between atoms: _405  and  _408
REMARK  170  A    between atoms: _408  and  _409
REMARK  171  A    between atoms: _412  and  _414
REMARK  172  A    between atoms: _414  and  _415
REMARK  173  A    between atoms: _417  and  _419
REMARK  174  A    between atoms: _419  and  _420
REMARK  175  A    between atoms: _422  and  _424
REMARK  176  A    between atoms: _424  and  _425
REMARK  177  A    between atoms: _424  and  _427
REMARK  178  A    between atoms: _427  and  _428
REMARK  179  A    between atoms: _431  and  _433
REMARK  180  A    between atoms: _433  and  _434
REMARK  181  A    between atoms: _436  and  _438
REMARK  182  A    between atoms: _438  and  _439
REMARK  183  A    between atoms: _441  and  _443
REMARK  184  A    between atoms: _443  and  _444
REMARK  185  A    between atoms: _443  and  _446
REMARK  186  A    between atoms: _446  and  _447
REMARK  187  A    between atoms: _453  and  _455
REMARK  188  A    between atoms: _455  and  _456
REMARK  189  A    between atoms: _455  and  _458
REMARK  190  A    between atoms: _458  and  _459
REMARK  191  A    between atoms: _462  and  _464
REMARK  192  A    between atoms: _464  and  _465
REMARK  193  A    between atoms: _464  and  _467
REMARK  194  A    between atoms: _470  and  _472
REMARK  195  A    between atoms: _472  and  _473
REMARK  196  A    between atoms: _472  and  _475
REMARK  197  A    between atoms: _475  and  _476
REMARK  198  A    between atoms: _479  and  _481
REMARK  199  A    between atoms: _481  and  _482
REMARK  200  A    between atoms: _481  and  _484
REMARK  201  A    between atoms: _484  and  _485
REMARK  202  A    between atoms: _489  and  _490
REMARK  203  A    between atoms: _495  and  _497
REMARK  204  A    between atoms: _497  and  _498
REMARK  205  A    between atoms: _497  and  _500
REMARK  206  A    between atoms: _503  and  _505
REMARK  207  A    between atoms: _505  and  _506
REMARK  208  A    between atoms: _505  and  _508
REMARK  209  A    between atoms: _508  and  _509
REMARK  210  A    between atoms: _514  and  _516
REMARK  211  A    between atoms: _516  and  _517
REMARK  212  A    between atoms: _516  and  _519
REMARK  213  A    between atoms: _519  and  _520
REMARK  214  A    between atoms: _523  and  _525
REMARK  215  A    between atoms: _525  and  _526
REMARK  216  A    between atoms: _525  and  _528
REMARK  217  A    between atoms: _528  and  _529
REMARK  218  A    between atoms: _532  and  _534
REMARK  219  A    between atoms: _534  and  _535
REMARK  220  A    between atoms: _537  and  _539
REMARK  221  A    between atoms: _539  and  _540
REMARK  222  A    between atoms: _539  and  _542
REMARK  223  A    between atoms: _542  and  _543
REMARK  224  A    between atoms: _543  and  _544
REMARK  225  A    between atoms: _544  and  _545
REMARK                            x       y       z     vdW  Elec       q    Type
REMARK                         _______ _______ _______ _____ _____    ______ ____
ROOT
ATOM      1  O   HOH     1     -11.527  12.298  37.765  0.00  0.00    +0.000 OA
ENDROOT
TORSDOF 0
