REMARK  Name = ../refined-set-2016/1d4j/1d4j_pocket.pdb
REMARK  244 active torsions:
REMARK  status: ('A' for Active; 'I' for Inactive)
REMARK    1  A    between atoms: _1  and  _3
REMARK    2  A    between atoms: _3  and  _4
REMARK    3  A    between atoms: _3  and  _6
REMARK    4  A    between atoms: _6  and  _7
REMARK    5  A    between atoms: _7  and  _8
REMARK    6  A    between atoms: _8  and  _9
REMARK    7  A    between atoms: _18  and  _20
REMARK    8  A    between atoms: _20  and  _21
REMARK    9  A    between atoms: _20  and  _23
REMARK   10  A    between atoms: _23  and  _24
REMARK   11  A    between atoms: _27  and  _29
REMARK   12  A    between atoms: _29  and  _30
REMARK   13  A    between atoms: _29  and  _32
REMARK   14  A    between atoms: _32  and  _33
REMARK   15  A    between atoms: _36  and  _38
REMARK   16  A    between atoms: _38  and  _39
REMARK   17  A    between atoms: _38  and  _41
REMARK   18  A    between atoms: _41  and  _42
REMARK   19  A    between atoms: _45  and  _47
REMARK   20  A    between atoms: _47  and  _48
REMARK   21  A    between atoms: _47  and  _50
REMARK   22  A    between atoms: _50  and  _51
REMARK   23  A    between atoms: _54  and  _56
REMARK   24  A    between atoms: _56  and  _57
REMARK   25  A    between atoms: _56  and  _59
REMARK   26  A    between atoms: _59  and  _60
REMARK   27  A    between atoms: _63  and  _65
REMARK   28  A    between atoms: _65  and  _66
REMARK   29  A    between atoms: _68  and  _70
REMARK   30  A    between atoms: _70  and  _71
REMARK   31  A    between atoms: _74  and  _76
REMARK   32  A    between atoms: _76  and  _77
REMARK   33  A    between atoms: _76  and  _79
REMARK   34  A    between atoms: _79  and  _80
REMARK   35  A    between atoms: _83  and  _85
REMARK   36  A    between atoms: _85  and  _86
REMARK   37  A    between atoms: _85  and  _88
REMARK   38  A    between atoms: _88  and  _89
REMARK   39  A    between atoms: _92  and  _94
REMARK   40  A    between atoms: _94  and  _95
REMARK   41  A    between atoms: _94  and  _97
REMARK   42  A    between atoms: _97  and  _98
REMARK   43  A    between atoms: _101  and  _103
REMARK   44  A    between atoms: _103  and  _104
REMARK   45  A    between atoms: _103  and  _106
REMARK   46  A    between atoms: _109  and  _111
REMARK   47  A    between atoms: _111  and  _112
REMARK   48  A    between atoms: _111  and  _114
REMARK   49  A    between atoms: _114  and  _115
REMARK   50  A    between atoms: _115  and  _116
REMARK   51  A    between atoms: _116  and  _117
REMARK   52  A    between atoms: _117  and  _118
REMARK   53  A    between atoms: _122  and  _124
REMARK   54  A    between atoms: _124  and  _125
REMARK   55  A    between atoms: _124  and  _127
REMARK   56  A    between atoms: _127  and  _128
REMARK   57  A    between atoms: _128  and  _129
REMARK   58  A    between atoms: _131  and  _133
REMARK   59  A    between atoms: _133  and  _134
REMARK   60  A    between atoms: _133  and  _136
REMARK   61  A    between atoms: _136  and  _137
REMARK   62  A    between atoms: _140  and  _142
REMARK   63  A    between atoms: _142  and  _143
REMARK   64  A    between atoms: _145  and  _147
REMARK   65  A    between atoms: _147  and  _148
REMARK   66  A    between atoms: _150  and  _152
REMARK   67  A    between atoms: _152  and  _153
REMARK   68  A    between atoms: _152  and  _155
REMARK   69  A    between atoms: _155  and  _156
REMARK   70  A    between atoms: _159  and  _161
REMARK   71  A    between atoms: _161  and  _162
REMARK   72  A    between atoms: _164  and  _166
REMARK   73  A    between atoms: _166  and  _167
REMARK   74  A    between atoms: _169  and  _171
REMARK   75  A    between atoms: _171  and  _172
REMARK   76  A    between atoms: _171  and  _174
REMARK   77  A    between atoms: _174  and  _175
REMARK   78  A    between atoms: _181  and  _183
REMARK   79  A    between atoms: _183  and  _184
REMARK   80  A    between atoms: _183  and  _186
REMARK   81  A    between atoms: _186  and  _187
REMARK   82  A    between atoms: _190  and  _192
REMARK   83  A    between atoms: _192  and  _193
REMARK   84  A    between atoms: _192  and  _195
REMARK   85  A    between atoms: _198  and  _200
REMARK   86  A    between atoms: _200  and  _201
REMARK   87  A    between atoms: _200  and  _203
REMARK   88  A    between atoms: _203  and  _204
REMARK   89  A    between atoms: _207  and  _209
REMARK   90  A    between atoms: _209  and  _210
REMARK   91  A    between atoms: _209  and  _212
REMARK   92  A    between atoms: _212  and  _213
REMARK   93  A    between atoms: _217  and  _218
REMARK   94  A    between atoms: _223  and  _225
REMARK   95  A    between atoms: _225  and  _226
REMARK   96  A    between atoms: _225  and  _228
REMARK   97  A    between atoms: _231  and  _233
REMARK   98  A    between atoms: _233  and  _234
REMARK   99  A    between atoms: _233  and  _236
REMARK  100  A    between atoms: _236  and  _237
REMARK  101  A    between atoms: _242  and  _244
REMARK  102  A    between atoms: _244  and  _245
REMARK  103  A    between atoms: _244  and  _247
REMARK  104  A    between atoms: _247  and  _248
REMARK  105  A    between atoms: _251  and  _253
REMARK  106  A    between atoms: _253  and  _254
REMARK  107  A    between atoms: _253  and  _256
REMARK  108  A    between atoms: _256  and  _257
REMARK  109  A    between atoms: _260  and  _262
REMARK  110  A    between atoms: _262  and  _263
REMARK  111  A    between atoms: _265  and  _267
REMARK  112  A    between atoms: _267  and  _268
REMARK  113  A    between atoms: _267  and  _270
REMARK  114  A    between atoms: _270  and  _271
REMARK  115  A    between atoms: _271  and  _272
REMARK  116  A    between atoms: _272  and  _273
REMARK  117  A    between atoms: _282  and  _284
REMARK  118  A    between atoms: _284  and  _285
REMARK  119  A    between atoms: _284  and  _287
REMARK  120  A    between atoms: _287  and  _288
REMARK  121  A    between atoms: _293  and  _295
REMARK  122  A    between atoms: _295  and  _296
REMARK  123  A    between atoms: _295  and  _298
REMARK  124  A    between atoms: _298  and  _299
REMARK  125  A    between atoms: _299  and  _300
REMARK  126  A    between atoms: _300  and  _301
REMARK  127  A    between atoms: _310  and  _312
REMARK  128  A    between atoms: _312  and  _313
REMARK  129  A    between atoms: _312  and  _315
REMARK  130  A    between atoms: _315  and  _316
REMARK  131  A    between atoms: _319  and  _321
REMARK  132  A    between atoms: _321  and  _322
REMARK  133  A    between atoms: _321  and  _324
REMARK  134  A    between atoms: _324  and  _325
REMARK  135  A    between atoms: _328  and  _330
REMARK  136  A    between atoms: _330  and  _331
REMARK  137  A    between atoms: _330  and  _333
REMARK  138  A    between atoms: _333  and  _334
REMARK  139  A    between atoms: _337  and  _339
REMARK  140  A    between atoms: _339  and  _340
REMARK  141  A    between atoms: _339  and  _342
REMARK  142  A    between atoms: _342  and  _343
REMARK  143  A    between atoms: _346  and  _348
REMARK  144  A    between atoms: _348  and  _349
REMARK  145  A    between atoms: _348  and  _351
REMARK  146  A    between atoms: _351  and  _352
REMARK  147  A    between atoms: _355  and  _357
REMARK  148  A    between atoms: _357  and  _358
REMARK  149  A    between atoms: _360  and  _362
REMARK  150  A    between atoms: _362  and  _363
REMARK  151  A    between atoms: _366  and  _368
REMARK  152  A    between atoms: _368  and  _369
REMARK  153  A    between atoms: _368  and  _371
REMARK  154  A    between atoms: _371  and  _372
REMARK  155  A    between atoms: _375  and  _377
REMARK  156  A    between atoms: _377  and  _378
REMARK  157  A    between atoms: _377  and  _380
REMARK  158  A    between atoms: _380  and  _381
REMARK  159  A    between atoms: _384  and  _386
REMARK  160  A    between atoms: _386  and  _387
REMARK  161  A    between atoms: _386  and  _389
REMARK  162  A    between atoms: _389  and  _390
REMARK  163  A    between atoms: _393  and  _395
REMARK  164  A    between atoms: _395  and  _396
REMARK  165  A    between atoms: _395  and  _398
REMARK  166  A    between atoms: _401  and  _403
REMARK  167  A    between atoms: _403  and  _404
REMARK  168  A    between atoms: _403  and  _406
REMARK  169  A    between atoms: _406  and  _407
REMARK  170  A    between atoms: _410  and  _412
REMARK  171  A    between atoms: _412  and  _413
REMARK  172  A    between atoms: _412  and  _415
REMARK  173  A    between atoms: _415  and  _416
REMARK  174  A    between atoms: _416  and  _417
REMARK  175  A    between atoms: _417  and  _418
REMARK  176  A    between atoms: _418  and  _419
REMARK  177  A    between atoms: _423  and  _425
REMARK  178  A    between atoms: _425  and  _426
REMARK  179  A    between atoms: _425  and  _428
REMARK  180  A    between atoms: _428  and  _429
REMARK  181  A    between atoms: _429  and  _430
REMARK  182  A    between atoms: _432  and  _434
REMARK  183  A    between atoms: _434  and  _435
REMARK  184  A    between atoms: _434  and  _437
REMARK  185  A    between atoms: _437  and  _438
REMARK  186  A    between atoms: _441  and  _443
REMARK  187  A    between atoms: _443  and  _444
REMARK  188  A    between atoms: _446  and  _448
REMARK  189  A    between atoms: _448  and  _449
REMARK  190  A    between atoms: _451  and  _453
REMARK  191  A    between atoms: _453  and  _454
REMARK  192  A    between atoms: _453  and  _456
REMARK  193  A    between atoms: _456  and  _457
REMARK  194  A    between atoms: _460  and  _462
REMARK  195  A    between atoms: _462  and  _463
REMARK  196  A    between atoms: _465  and  _467
REMARK  197  A    between atoms: _467  and  _468
REMARK  198  A    between atoms: _470  and  _472
REMARK  199  A    between atoms: _472  and  _473
REMARK  200  A    between atoms: _472  and  _475
REMARK  201  A    between atoms: _475  and  _476
REMARK  202  A    between atoms: _482  and  _484
REMARK  203  A    between atoms: _484  and  _485
REMARK  204  A    between atoms: _484  and  _487
REMARK  205  A    between atoms: _487  and  _488
REMARK  206  A    between atoms: _491  and  _493
REMARK  207  A    between atoms: _493  and  _494
REMARK  208  A    between atoms: _493  and  _496
REMARK  209  A    between atoms: _499  and  _501
REMARK  210  A    between atoms: _501  and  _502
REMARK  211  A    between atoms: _501  and  _504
REMARK  212  A    between atoms: _504  and  _505
REMARK  213  A    between atoms: _508  and  _510
REMARK  214  A    between atoms: _510  and  _511
REMARK  215  A    between atoms: _510  and  _513
REMARK  216  A    between atoms: _513  and  _514
REMARK  217  A    between atoms: _518  and  _519
REMARK  218  A    between atoms: _524  and  _526
REMARK  219  A    between atoms: _526  and  _527
REMARK  220  A    between atoms: _526  and  _529
REMARK  221  A    between atoms: _532  and  _534
REMARK  222  A    between atoms: _534  and  _535
REMARK  223  A    between atoms: _534  and  _537
REMARK  224  A    between atoms: _537  and  _538
REMARK  225  A    between atoms: _543  and  _545
REMARK  226  A    between atoms: _545  and  _546
REMARK  227  A    between atoms: _545  and  _548
REMARK  228  A    between atoms: _548  and  _549
REMARK  229  A    between atoms: _552  and  _554
REMARK  230  A    between atoms: _554  and  _555
REMARK  231  A    between atoms: _554  and  _557
REMARK  232  A    between atoms: _557  and  _558
REMARK  233  A    between atoms: _561  and  _563
REMARK  234  A    between atoms: _563  and  _564
REMARK  235  A    between atoms: _566  and  _568
REMARK  236  A    between atoms: _568  and  _569
REMARK  237  A    between atoms: _568  and  _571
REMARK  238  A    between atoms: _571  and  _572
REMARK  239  A    between atoms: _572  and  _573
REMARK  240  A    between atoms: _573  and  _574
REMARK  241  A    between atoms: _583  and  _585
REMARK  242  A    between atoms: _585  and  _586
REMARK  243  A    between atoms: _585  and  _588
REMARK  244  A    between atoms: _588  and  _589
REMARK                            x       y       z     vdW  Elec       q    Type
REMARK                         _______ _______ _______ _____ _____    ______ ____
ROOT
ATOM      1  NE  ARG A   1      22.651  20.875   7.820  0.00  0.00    -0.265 N 
ATOM      2  CZ  ARG A   1      21.866  20.138   8.599  0.00  0.00    +0.342 C 
ATOM      3  NH2 ARG A   1      21.791  20.387   9.906  0.00  0.00    -0.292 N 
ATOM      4 HH21 ARG A   1      21.175  19.807  10.511  0.00  0.00    +0.255 HD
ATOM      5 HH22 ARG A   1      22.348  21.161  10.321  0.00  0.00    +0.255 HD
ATOM      6  NH1 ARG A   1      21.149  19.154   8.071  0.00  0.00    -0.292 N 
ATOM      7 HH11 ARG A   1      20.534  18.575   8.678  0.00  0.00    +0.255 HD
ATOM      8 HH12 ARG A   1      21.202  18.961   7.050  0.00  0.00    +0.255 HD
ATOM      9  HE  ARG A   1      22.680  20.645   6.806  0.00  0.00    +0.259 HD
ENDROOT
BRANCH   1  10
ATOM     10  CD  ARG A   1      23.476  21.985   8.287  0.00  0.00    +0.174 C 
BRANCH  10  11
ATOM     11  CG  ARG A   1      24.189  22.667   7.127  0.00  0.00    +0.045 C 
BRANCH  11  12
ATOM     12  CB  ARG A   1      24.808  23.986   7.551  0.00  0.00    +0.029 C 
BRANCH  12  13
ATOM     13  CA  ARG A   1      25.480  24.751   6.410  0.00  0.00    +0.133 C 
BRANCH  13  14
ATOM     14  N   ARG A   1      26.722  24.098   6.008  0.00  0.00    -0.239 NA
ATOM     15  H   ARG A   1      27.048  23.249   6.513  0.00  0.00    +0.142 HD
ENDBRANCH  13  14
BRANCH  13  16
ATOM     16  C   ARG A   1      25.846  26.152   6.877  0.00  0.00    +0.224 C 
ATOM     17  O   ARG A   1      26.830  26.333   7.599  0.00  0.00    -0.287 OA
ENDBRANCH  13  16
ENDBRANCH  12  13
ENDBRANCH  11  12
ENDBRANCH  10  11
ENDBRANCH   1  10
TORSDOF 6
REMARK  Name = ../refined-set-2016/1d4j/1d4j_pocket.pdb
REMARK  244 active torsions:
REMARK  status: ('A' for Active; 'I' for Inactive)
REMARK    1  A    between atoms: _1  and  _3
REMARK    2  A    between atoms: _3  and  _4
REMARK    3  A    between atoms: _3  and  _6
REMARK    4  A    between atoms: _6  and  _7
REMARK    5  A    between atoms: _7  and  _8
REMARK    6  A    between atoms: _8  and  _9
REMARK    7  A    between atoms: _18  and  _20
REMARK    8  A    between atoms: _20  and  _21
REMARK    9  A    between atoms: _20  and  _23
REMARK   10  A    between atoms: _23  and  _24
REMARK   11  A    between atoms: _27  and  _29
REMARK   12  A    between atoms: _29  and  _30
REMARK   13  A    between atoms: _29  and  _32
REMARK   14  A    between atoms: _32  and  _33
REMARK   15  A    between atoms: _36  and  _38
REMARK   16  A    between atoms: _38  and  _39
REMARK   17  A    between atoms: _38  and  _41
REMARK   18  A    between atoms: _41  and  _42
REMARK   19  A    between atoms: _45  and  _47
REMARK   20  A    between atoms: _47  and  _48
REMARK   21  A    between atoms: _47  and  _50
REMARK   22  A    between atoms: _50  and  _51
REMARK   23  A    between atoms: _54  and  _56
REMARK   24  A    between atoms: _56  and  _57
REMARK   25  A    between atoms: _56  and  _59
REMARK   26  A    between atoms: _59  and  _60
REMARK   27  A    between atoms: _63  and  _65
REMARK   28  A    between atoms: _65  and  _66
REMARK   29  A    between atoms: _68  and  _70
REMARK   30  A    between atoms: _70  and  _71
REMARK   31  A    between atoms: _74  and  _76
REMARK   32  A    between atoms: _76  and  _77
REMARK   33  A    between atoms: _76  and  _79
REMARK   34  A    between atoms: _79  and  _80
REMARK   35  A    between atoms: _83  and  _85
REMARK   36  A    between atoms: _85  and  _86
REMARK   37  A    between atoms: _85  and  _88
REMARK   38  A    between atoms: _88  and  _89
REMARK   39  A    between atoms: _92  and  _94
REMARK   40  A    between atoms: _94  and  _95
REMARK   41  A    between atoms: _94  and  _97
REMARK   42  A    between atoms: _97  and  _98
REMARK   43  A    between atoms: _101  and  _103
REMARK   44  A    between atoms: _103  and  _104
REMARK   45  A    between atoms: _103  and  _106
REMARK   46  A    between atoms: _109  and  _111
REMARK   47  A    between atoms: _111  and  _112
REMARK   48  A    between atoms: _111  and  _114
REMARK   49  A    between atoms: _114  and  _115
REMARK   50  A    between atoms: _115  and  _116
REMARK   51  A    between atoms: _116  and  _117
REMARK   52  A    between atoms: _117  and  _118
REMARK   53  A    between atoms: _122  and  _124
REMARK   54  A    between atoms: _124  and  _125
REMARK   55  A    between atoms: _124  and  _127
REMARK   56  A    between atoms: _127  and  _128
REMARK   57  A    between atoms: _128  and  _129
REMARK   58  A    between atoms: _131  and  _133
REMARK   59  A    between atoms: _133  and  _134
REMARK   60  A    between atoms: _133  and  _136
REMARK   61  A    between atoms: _136  and  _137
REMARK   62  A    between atoms: _140  and  _142
REMARK   63  A    between atoms: _142  and  _143
REMARK   64  A    between atoms: _145  and  _147
REMARK   65  A    between atoms: _147  and  _148
REMARK   66  A    between atoms: _150  and  _152
REMARK   67  A    between atoms: _152  and  _153
REMARK   68  A    between atoms: _152  and  _155
REMARK   69  A    between atoms: _155  and  _156
REMARK   70  A    between atoms: _159  and  _161
REMARK   71  A    between atoms: _161  and  _162
REMARK   72  A    between atoms: _164  and  _166
REMARK   73  A    between atoms: _166  and  _167
REMARK   74  A    between atoms: _169  and  _171
REMARK   75  A    between atoms: _171  and  _172
REMARK   76  A    between atoms: _171  and  _174
REMARK   77  A    between atoms: _174  and  _175
REMARK   78  A    between atoms: _181  and  _183
REMARK   79  A    between atoms: _183  and  _184
REMARK   80  A    between atoms: _183  and  _186
REMARK   81  A    between atoms: _186  and  _187
REMARK   82  A    between atoms: _190  and  _192
REMARK   83  A    between atoms: _192  and  _193
REMARK   84  A    between atoms: _192  and  _195
REMARK   85  A    between atoms: _198  and  _200
REMARK   86  A    between atoms: _200  and  _201
REMARK   87  A    between atoms: _200  and  _203
REMARK   88  A    between atoms: _203  and  _204
REMARK   89  A    between atoms: _207  and  _209
REMARK   90  A    between atoms: _209  and  _210
REMARK   91  A    between atoms: _209  and  _212
REMARK   92  A    between atoms: _212  and  _213
REMARK   93  A    between atoms: _217  and  _218
REMARK   94  A    between atoms: _223  and  _225
REMARK   95  A    between atoms: _225  and  _226
REMARK   96  A    between atoms: _225  and  _228
REMARK   97  A    between atoms: _231  and  _233
REMARK   98  A    between atoms: _233  and  _234
REMARK   99  A    between atoms: _233  and  _236
REMARK  100  A    between atoms: _236  and  _237
REMARK  101  A    between atoms: _242  and  _244
REMARK  102  A    between atoms: _244  and  _245
REMARK  103  A    between atoms: _244  and  _247
REMARK  104  A    between atoms: _247  and  _248
REMARK  105  A    between atoms: _251  and  _253
REMARK  106  A    between atoms: _253  and  _254
REMARK  107  A    between atoms: _253  and  _256
REMARK  108  A    between atoms: _256  and  _257
REMARK  109  A    between atoms: _260  and  _262
REMARK  110  A    between atoms: _262  and  _263
REMARK  111  A    between atoms: _265  and  _267
REMARK  112  A    between atoms: _267  and  _268
REMARK  113  A    between atoms: _267  and  _270
REMARK  114  A    between atoms: _270  and  _271
REMARK  115  A    between atoms: _271  and  _272
REMARK  116  A    between atoms: _272  and  _273
REMARK  117  A    between atoms: _282  and  _284
REMARK  118  A    between atoms: _284  and  _285
REMARK  119  A    between atoms: _284  and  _287
REMARK  120  A    between atoms: _287  and  _288
REMARK  121  A    between atoms: _293  and  _295
REMARK  122  A    between atoms: _295  and  _296
REMARK  123  A    between atoms: _295  and  _298
REMARK  124  A    between atoms: _298  and  _299
REMARK  125  A    between atoms: _299  and  _300
REMARK  126  A    between atoms: _300  and  _301
REMARK  127  A    between atoms: _310  and  _312
REMARK  128  A    between atoms: _312  and  _313
REMARK  129  A    between atoms: _312  and  _315
REMARK  130  A    between atoms: _315  and  _316
REMARK  131  A    between atoms: _319  and  _321
REMARK  132  A    between atoms: _321  and  _322
REMARK  133  A    between atoms: _321  and  _324
REMARK  134  A    between atoms: _324  and  _325
REMARK  135  A    between atoms: _328  and  _330
REMARK  136  A    between atoms: _330  and  _331
REMARK  137  A    between atoms: _330  and  _333
REMARK  138  A    between atoms: _333  and  _334
REMARK  139  A    between atoms: _337  and  _339
REMARK  140  A    between atoms: _339  and  _340
REMARK  141  A    between atoms: _339  and  _342
REMARK  142  A    between atoms: _342  and  _343
REMARK  143  A    between atoms: _346  and  _348
REMARK  144  A    between atoms: _348  and  _349
REMARK  145  A    between atoms: _348  and  _351
REMARK  146  A    between atoms: _351  and  _352
REMARK  147  A    between atoms: _355  and  _357
REMARK  148  A    between atoms: _357  and  _358
REMARK  149  A    between atoms: _360  and  _362
REMARK  150  A    between atoms: _362  and  _363
REMARK  151  A    between atoms: _366  and  _368
REMARK  152  A    between atoms: _368  and  _369
REMARK  153  A    between atoms: _368  and  _371
REMARK  154  A    between atoms: _371  and  _372
REMARK  155  A    between atoms: _375  and  _377
REMARK  156  A    between atoms: _377  and  _378
REMARK  157  A    between atoms: _377  and  _380
REMARK  158  A    between atoms: _380  and  _381
REMARK  159  A    between atoms: _384  and  _386
REMARK  160  A    between atoms: _386  and  _387
REMARK  161  A    between atoms: _386  and  _389
REMARK  162  A    between atoms: _389  and  _390
REMARK  163  A    between atoms: _393  and  _395
REMARK  164  A    between atoms: _395  and  _396
REMARK  165  A    between atoms: _395  and  _398
REMARK  166  A    between atoms: _401  and  _403
REMARK  167  A    between atoms: _403  and  _404
REMARK  168  A    between atoms: _403  and  _406
REMARK  169  A    between atoms: _406  and  _407
REMARK  170  A    between atoms: _410  and  _412
REMARK  171  A    between atoms: _412  and  _413
REMARK  172  A    between atoms: _412  and  _415
REMARK  173  A    between atoms: _415  and  _416
REMARK  174  A    between atoms: _416  and  _417
REMARK  175  A    between atoms: _417  and  _418
REMARK  176  A    between atoms: _418  and  _419
REMARK  177  A    between atoms: _423  and  _425
REMARK  178  A    between atoms: _425  and  _426
REMARK  179  A    between atoms: _425  and  _428
REMARK  180  A    between atoms: _428  and  _429
REMARK  181  A    between atoms: _429  and  _430
REMARK  182  A    between atoms: _432  and  _434
REMARK  183  A    between atoms: _434  and  _435
REMARK  184  A    between atoms: _434  and  _437
REMARK  185  A    between atoms: _437  and  _438
REMARK  186  A    between atoms: _441  and  _443
REMARK  187  A    between atoms: _443  and  _444
REMARK  188  A    between atoms: _446  and  _448
REMARK  189  A    between atoms: _448  and  _449
REMARK  190  A    between atoms: _451  and  _453
REMARK  191  A    between atoms: _453  and  _454
REMARK  192  A    between atoms: _453  and  _456
REMARK  193  A    between atoms: _456  and  _457
REMARK  194  A    between atoms: _460  and  _462
REMARK  195  A    between atoms: _462  and  _463
REMARK  196  A    between atoms: _465  and  _467
REMARK  197  A    between atoms: _467  and  _468
REMARK  198  A    between atoms: _470  and  _472
REMARK  199  A    between atoms: _472  and  _473
REMARK  200  A    between atoms: _472  and  _475
REMARK  201  A    between atoms: _475  and  _476
REMARK  202  A    between atoms: _482  and  _484
REMARK  203  A    between atoms: _484  and  _485
REMARK  204  A    between atoms: _484  and  _487
REMARK  205  A    between atoms: _487  and  _488
REMARK  206  A    between atoms: _491  and  _493
REMARK  207  A    between atoms: _493  and  _494
REMARK  208  A    between atoms: _493  and  _496
REMARK  209  A    between atoms: _499  and  _501
REMARK  210  A    between atoms: _501  and  _502
REMARK  211  A    between atoms: _501  and  _504
REMARK  212  A    between atoms: _504  and  _505
REMARK  213  A    between atoms: _508  and  _510
REMARK  214  A    between atoms: _510  and  _511
REMARK  215  A    between atoms: _510  and  _513
REMARK  216  A    between atoms: _513  and  _514
REMARK  217  A    between atoms: _518  and  _519
REMARK  218  A    between atoms: _524  and  _526
REMARK  219  A    between atoms: _526  and  _527
REMARK  220  A    between atoms: _526  and  _529
REMARK  221  A    between atoms: _532  and  _534
REMARK  222  A    between atoms: _534  and  _535
REMARK  223  A    between atoms: _534  and  _537
REMARK  224  A    between atoms: _537  and  _538
REMARK  225  A    between atoms: _543  and  _545
REMARK  226  A    between atoms: _545  and  _546
REMARK  227  A    between atoms: _545  and  _548
REMARK  228  A    between atoms: _548  and  _549
REMARK  229  A    between atoms: _552  and  _554
REMARK  230  A    between atoms: _554  and  _555
REMARK  231  A    between atoms: _554  and  _557
REMARK  232  A    between atoms: _557  and  _558
REMARK  233  A    between atoms: _561  and  _563
REMARK  234  A    between atoms: _563  and  _564
REMARK  235  A    between atoms: _566  and  _568
REMARK  236  A    between atoms: _568  and  _569
REMARK  237  A    between atoms: _568  and  _571
REMARK  238  A    between atoms: _571  and  _572
REMARK  239  A    between atoms: _572  and  _573
REMARK  240  A    between atoms: _573  and  _574
REMARK  241  A    between atoms: _583  and  _585
REMARK  242  A    between atoms: _585  and  _586
REMARK  243  A    between atoms: _585  and  _588
REMARK  244  A    between atoms: _588  and  _589
REMARK                            x       y       z     vdW  Elec       q    Type
REMARK                         _______ _______ _______ _____ _____    ______ ____
ROOT
ATOM      1  CA  LEU A   1      25.354  28.626  10.663  0.00  0.00    +0.133 C 
ENDROOT
BRANCH   1   2
ATOM      2  N   LEU A   1      25.673  28.421   9.255  0.00  0.00    -0.239 NA
ATOM      3  H   LEU A   1      26.552  27.923   9.008  0.00  0.00    +0.142 HD
ENDBRANCH   1   2
BRANCH   1   4
ATOM      4  C   LEU A   1      25.999  29.899  11.190  0.00  0.00    +0.224 C 
ATOM      5  O   LEU A   1      27.161  30.189  10.894  0.00  0.00    -0.287 OA
ENDBRANCH   1   4
BRANCH   1   6
ATOM      6  CB  LEU A   1      25.846  27.438  11.492  0.00  0.00    +0.025 C 
BRANCH   6   7
ATOM      7  CG  LEU A   1      25.224  26.068  11.225  0.00  0.00    +0.002 C 
ATOM      8  CD2 LEU A   1      25.957  25.016  12.042  0.00  0.00    +0.000 C 
ATOM      9  CD1 LEU A   1      23.745  26.087  11.589  0.00  0.00    +0.000 C 
ENDBRANCH   6   7
ENDBRANCH   1   6
TORSDOF 4
REMARK  Name = ../refined-set-2016/1d4j/1d4j_pocket.pdb
REMARK  244 active torsions:
REMARK  status: ('A' for Active; 'I' for Inactive)
REMARK    1  A    between atoms: _1  and  _3
REMARK    2  A    between atoms: _3  and  _4
REMARK    3  A    between atoms: _3  and  _6
REMARK    4  A    between atoms: _6  and  _7
REMARK    5  A    between atoms: _7  and  _8
REMARK    6  A    between atoms: _8  and  _9
REMARK    7  A    between atoms: _18  and  _20
REMARK    8  A    between atoms: _20  and  _21
REMARK    9  A    between atoms: _20  and  _23
REMARK   10  A    between atoms: _23  and  _24
REMARK   11  A    between atoms: _27  and  _29
REMARK   12  A    between atoms: _29  and  _30
REMARK   13  A    between atoms: _29  and  _32
REMARK   14  A    between atoms: _32  and  _33
REMARK   15  A    between atoms: _36  and  _38
REMARK   16  A    between atoms: _38  and  _39
REMARK   17  A    between atoms: _38  and  _41
REMARK   18  A    between atoms: _41  and  _42
REMARK   19  A    between atoms: _45  and  _47
REMARK   20  A    between atoms: _47  and  _48
REMARK   21  A    between atoms: _47  and  _50
REMARK   22  A    between atoms: _50  and  _51
REMARK   23  A    between atoms: _54  and  _56
REMARK   24  A    between atoms: _56  and  _57
REMARK   25  A    between atoms: _56  and  _59
REMARK   26  A    between atoms: _59  and  _60
REMARK   27  A    between atoms: _63  and  _65
REMARK   28  A    between atoms: _65  and  _66
REMARK   29  A    between atoms: _68  and  _70
REMARK   30  A    between atoms: _70  and  _71
REMARK   31  A    between atoms: _74  and  _76
REMARK   32  A    between atoms: _76  and  _77
REMARK   33  A    between atoms: _76  and  _79
REMARK   34  A    between atoms: _79  and  _80
REMARK   35  A    between atoms: _83  and  _85
REMARK   36  A    between atoms: _85  and  _86
REMARK   37  A    between atoms: _85  and  _88
REMARK   38  A    between atoms: _88  and  _89
REMARK   39  A    between atoms: _92  and  _94
REMARK   40  A    between atoms: _94  and  _95
REMARK   41  A    between atoms: _94  and  _97
REMARK   42  A    between atoms: _97  and  _98
REMARK   43  A    between atoms: _101  and  _103
REMARK   44  A    between atoms: _103  and  _104
REMARK   45  A    between atoms: _103  and  _106
REMARK   46  A    between atoms: _109  and  _111
REMARK   47  A    between atoms: _111  and  _112
REMARK   48  A    between atoms: _111  and  _114
REMARK   49  A    between atoms: _114  and  _115
REMARK   50  A    between atoms: _115  and  _116
REMARK   51  A    between atoms: _116  and  _117
REMARK   52  A    between atoms: _117  and  _118
REMARK   53  A    between atoms: _122  and  _124
REMARK   54  A    between atoms: _124  and  _125
REMARK   55  A    between atoms: _124  and  _127
REMARK   56  A    between atoms: _127  and  _128
REMARK   57  A    between atoms: _128  and  _129
REMARK   58  A    between atoms: _131  and  _133
REMARK   59  A    between atoms: _133  and  _134
REMARK   60  A    between atoms: _133  and  _136
REMARK   61  A    between atoms: _136  and  _137
REMARK   62  A    between atoms: _140  and  _142
REMARK   63  A    between atoms: _142  and  _143
REMARK   64  A    between atoms: _145  and  _147
REMARK   65  A    between atoms: _147  and  _148
REMARK   66  A    between atoms: _150  and  _152
REMARK   67  A    between atoms: _152  and  _153
REMARK   68  A    between atoms: _152  and  _155
REMARK   69  A    between atoms: _155  and  _156
REMARK   70  A    between atoms: _159  and  _161
REMARK   71  A    between atoms: _161  and  _162
REMARK   72  A    between atoms: _164  and  _166
REMARK   73  A    between atoms: _166  and  _167
REMARK   74  A    between atoms: _169  and  _171
REMARK   75  A    between atoms: _171  and  _172
REMARK   76  A    between atoms: _171  and  _174
REMARK   77  A    between atoms: _174  and  _175
REMARK   78  A    between atoms: _181  and  _183
REMARK   79  A    between atoms: _183  and  _184
REMARK   80  A    between atoms: _183  and  _186
REMARK   81  A    between atoms: _186  and  _187
REMARK   82  A    between atoms: _190  and  _192
REMARK   83  A    between atoms: _192  and  _193
REMARK   84  A    between atoms: _192  and  _195
REMARK   85  A    between atoms: _198  and  _200
REMARK   86  A    between atoms: _200  and  _201
REMARK   87  A    between atoms: _200  and  _203
REMARK   88  A    between atoms: _203  and  _204
REMARK   89  A    between atoms: _207  and  _209
REMARK   90  A    between atoms: _209  and  _210
REMARK   91  A    between atoms: _209  and  _212
REMARK   92  A    between atoms: _212  and  _213
REMARK   93  A    between atoms: _217  and  _218
REMARK   94  A    between atoms: _223  and  _225
REMARK   95  A    between atoms: _225  and  _226
REMARK   96  A    between atoms: _225  and  _228
REMARK   97  A    between atoms: _231  and  _233
REMARK   98  A    between atoms: _233  and  _234
REMARK   99  A    between atoms: _233  and  _236
REMARK  100  A    between atoms: _236  and  _237
REMARK  101  A    between atoms: _242  and  _244
REMARK  102  A    between atoms: _244  and  _245
REMARK  103  A    between atoms: _244  and  _247
REMARK  104  A    between atoms: _247  and  _248
REMARK  105  A    between atoms: _251  and  _253
REMARK  106  A    between atoms: _253  and  _254
REMARK  107  A    between atoms: _253  and  _256
REMARK  108  A    between atoms: _256  and  _257
REMARK  109  A    between atoms: _260  and  _262
REMARK  110  A    between atoms: _262  and  _263
REMARK  111  A    between atoms: _265  and  _267
REMARK  112  A    between atoms: _267  and  _268
REMARK  113  A    between atoms: _267  and  _270
REMARK  114  A    between atoms: _270  and  _271
REMARK  115  A    between atoms: _271  and  _272
REMARK  116  A    between atoms: _272  and  _273
REMARK  117  A    between atoms: _282  and  _284
REMARK  118  A    between atoms: _284  and  _285
REMARK  119  A    between atoms: _284  and  _287
REMARK  120  A    between atoms: _287  and  _288
REMARK  121  A    between atoms: _293  and  _295
REMARK  122  A    between atoms: _295  and  _296
REMARK  123  A    between atoms: _295  and  _298
REMARK  124  A    between atoms: _298  and  _299
REMARK  125  A    between atoms: _299  and  _300
REMARK  126  A    between atoms: _300  and  _301
REMARK  127  A    between atoms: _310  and  _312
REMARK  128  A    between atoms: _312  and  _313
REMARK  129  A    between atoms: _312  and  _315
REMARK  130  A    between atoms: _315  and  _316
REMARK  131  A    between atoms: _319  and  _321
REMARK  132  A    between atoms: _321  and  _322
REMARK  133  A    between atoms: _321  and  _324
REMARK  134  A    between atoms: _324  and  _325
REMARK  135  A    between atoms: _328  and  _330
REMARK  136  A    between atoms: _330  and  _331
REMARK  137  A    between atoms: _330  and  _333
REMARK  138  A    between atoms: _333  and  _334
REMARK  139  A    between atoms: _337  and  _339
REMARK  140  A    between atoms: _339  and  _340
REMARK  141  A    between atoms: _339  and  _342
REMARK  142  A    between atoms: _342  and  _343
REMARK  143  A    between atoms: _346  and  _348
REMARK  144  A    between atoms: _348  and  _349
REMARK  145  A    between atoms: _348  and  _351
REMARK  146  A    between atoms: _351  and  _352
REMARK  147  A    between atoms: _355  and  _357
REMARK  148  A    between atoms: _357  and  _358
REMARK  149  A    between atoms: _360  and  _362
REMARK  150  A    between atoms: _362  and  _363
REMARK  151  A    between atoms: _366  and  _368
REMARK  152  A    between atoms: _368  and  _369
REMARK  153  A    between atoms: _368  and  _371
REMARK  154  A    between atoms: _371  and  _372
REMARK  155  A    between atoms: _375  and  _377
REMARK  156  A    between atoms: _377  and  _378
REMARK  157  A    between atoms: _377  and  _380
REMARK  158  A    between atoms: _380  and  _381
REMARK  159  A    between atoms: _384  and  _386
REMARK  160  A    between atoms: _386  and  _387
REMARK  161  A    between atoms: _386  and  _389
REMARK  162  A    between atoms: _389  and  _390
REMARK  163  A    between atoms: _393  and  _395
REMARK  164  A    between atoms: _395  and  _396
REMARK  165  A    between atoms: _395  and  _398
REMARK  166  A    between atoms: _401  and  _403
REMARK  167  A    between atoms: _403  and  _404
REMARK  168  A    between atoms: _403  and  _406
REMARK  169  A    between atoms: _406  and  _407
REMARK  170  A    between atoms: _410  and  _412
REMARK  171  A    between atoms: _412  and  _413
REMARK  172  A    between atoms: _412  and  _415
REMARK  173  A    between atoms: _415  and  _416
REMARK  174  A    between atoms: _416  and  _417
REMARK  175  A    between atoms: _417  and  _418
REMARK  176  A    between atoms: _418  and  _419
REMARK  177  A    between atoms: _423  and  _425
REMARK  178  A    between atoms: _425  and  _426
REMARK  179  A    between atoms: _425  and  _428
REMARK  180  A    between atoms: _428  and  _429
REMARK  181  A    between atoms: _429  and  _430
REMARK  182  A    between atoms: _432  and  _434
REMARK  183  A    between atoms: _434  and  _435
REMARK  184  A    between atoms: _434  and  _437
REMARK  185  A    between atoms: _437  and  _438
REMARK  186  A    between atoms: _441  and  _443
REMARK  187  A    between atoms: _443  and  _444
REMARK  188  A    between atoms: _446  and  _448
REMARK  189  A    between atoms: _448  and  _449
REMARK  190  A    between atoms: _451  and  _453
REMARK  191  A    between atoms: _453  and  _454
REMARK  192  A    between atoms: _453  and  _456
REMARK  193  A    between atoms: _456  and  _457
REMARK  194  A    between atoms: _460  and  _462
REMARK  195  A    between atoms: _462  and  _463
REMARK  196  A    between atoms: _465  and  _467
REMARK  197  A    between atoms: _467  and  _468
REMARK  198  A    between atoms: _470  and  _472
REMARK  199  A    between atoms: _472  and  _473
REMARK  200  A    between atoms: _472  and  _475
REMARK  201  A    between atoms: _475  and  _476
REMARK  202  A    between atoms: _482  and  _484
REMARK  203  A    between atoms: _484  and  _485
REMARK  204  A    between atoms: _484  and  _487
REMARK  205  A    between atoms: _487  and  _488
REMARK  206  A    between atoms: _491  and  _493
REMARK  207  A    between atoms: _493  and  _494
REMARK  208  A    between atoms: _493  and  _496
REMARK  209  A    between atoms: _499  and  _501
REMARK  210  A    between atoms: _501  and  _502
REMARK  211  A    between atoms: _501  and  _504
REMARK  212  A    between atoms: _504  and  _505
REMARK  213  A    between atoms: _508  and  _510
REMARK  214  A    between atoms: _510  and  _511
REMARK  215  A    between atoms: _510  and  _513
REMARK  216  A    between atoms: _513  and  _514
REMARK  217  A    between atoms: _518  and  _519
REMARK  218  A    between atoms: _524  and  _526
REMARK  219  A    between atoms: _526  and  _527
REMARK  220  A    between atoms: _526  and  _529
REMARK  221  A    between atoms: _532  and  _534
REMARK  222  A    between atoms: _534  and  _535
REMARK  223  A    between atoms: _534  and  _537
REMARK  224  A    between atoms: _537  and  _538
REMARK  225  A    between atoms: _543  and  _545
REMARK  226  A    between atoms: _545  and  _546
REMARK  227  A    between atoms: _545  and  _548
REMARK  228  A    between atoms: _548  and  _549
REMARK  229  A    between atoms: _552  and  _554
REMARK  230  A    between atoms: _554  and  _555
REMARK  231  A    between atoms: _554  and  _557
REMARK  232  A    between atoms: _557  and  _558
REMARK  233  A    between atoms: _561  and  _563
REMARK  234  A    between atoms: _563  and  _564
REMARK  235  A    between atoms: _566  and  _568
REMARK  236  A    between atoms: _568  and  _569
REMARK  237  A    between atoms: _568  and  _571
REMARK  238  A    between atoms: _571  and  _572
REMARK  239  A    between atoms: _572  and  _573
REMARK  240  A    between atoms: _573  and  _574
REMARK  241  A    between atoms: _583  and  _585
REMARK  242  A    between atoms: _585  and  _586
REMARK  243  A    between atoms: _585  and  _588
REMARK  244  A    between atoms: _588  and  _589
REMARK                            x       y       z     vdW  Elec       q    Type
REMARK                         _______ _______ _______ _____ _____    ______ ____
ROOT
ATOM      1  C   GLY A   5      12.493  28.495   3.492  0.00  0.00    +0.243 C 
ATOM      2  N   ALA A   6      12.852  29.053   4.645  0.00  0.00    -0.297 N 
ATOM      3  H   ALA A   6      13.835  29.371   4.762  0.00  0.00    +0.150 HD
ATOM      4  O   GLY A   5      11.348  28.089   3.270  0.00  0.00    -0.273 OA
ENDROOT
BRANCH   2   5
ATOM      5  CA  ALA A   6      11.919  29.237   5.753  0.00  0.00    +0.149 C 
ATOM      6  CB  ALA A   6      12.660  29.048   7.076  0.00  0.00    +0.031 C 
BRANCH   5   7
ATOM      7  C   ALA A   6      11.289  30.628   5.715  0.00  0.00    +0.241 C 
ATOM      8  O   ALA A   6      12.008  31.625   5.739  0.00  0.00    -0.273 OA
ATOM      9  N   ASP A   7       9.958  30.699   5.676  0.00  0.00    -0.297 N 
ATOM     10  H   ASP A   7       9.394  29.825   5.669  0.00  0.00    +0.150 HD
BRANCH   9  11
ATOM     11  CA  ASP A   7       9.285  32.002   5.643  0.00  0.00    +0.160 C 
BRANCH  11  12
ATOM     12  C   ASP A   7       9.501  32.757   6.943  0.00  0.00    +0.241 C 
ATOM     13  N   ASP A   8       9.477  32.022   8.047  0.00  0.00    -0.297 N 
ATOM     14  H   ASP A   8       9.328  30.995   7.973  0.00  0.00    +0.150 HD
ATOM     15  O   ASP A   7       9.671  33.976   6.948  0.00  0.00    -0.273 OA
BRANCH  13  16
ATOM     16  CA  ASP A   8       9.655  32.622   9.355  0.00  0.00    +0.160 C 
BRANCH  16  17
ATOM     17  C   ASP A   8      10.779  31.975  10.147  0.00  0.00    +0.241 C 
ATOM     18  N   THR A   9      11.112  32.609  11.260  0.00  0.00    -0.295 N 
ATOM     19  H   THR A   9      10.592  33.473  11.514  0.00  0.00    +0.150 HD
ATOM     20  O   ASP A   8      11.322  30.943   9.765  0.00  0.00    -0.273 OA
BRANCH  18  21
ATOM     21  CA  THR A   9      12.167  32.153  12.140  0.00  0.00    +0.176 C 
BRANCH  21  22
ATOM     22  C   THR A   9      11.581  31.219  13.195  0.00  0.00    +0.243 C 
ATOM     23  O   THR A   9      10.545  31.514  13.799  0.00  0.00    -0.273 OA
ATOM     24  N   VAL A  10      12.228  30.077  13.397  0.00  0.00    -0.298 N 
ATOM     25  H   VAL A  10      13.081  29.860  12.844  0.00  0.00    +0.150 HD
BRANCH  24  26
ATOM     26  CA  VAL A  10      11.747  29.131  14.388  0.00  0.00    +0.137 C 
BRANCH  26  27
ATOM     27  CB  VAL A  10      11.036  27.929  13.714  0.00  0.00    +0.026 C 
ATOM     28  CG2 VAL A  10      10.532  26.954  14.771  0.00  0.00    +0.002 C 
ATOM     29  CG1 VAL A  10      11.970  27.240  12.752  0.00  0.00    +0.002 C 
ENDBRANCH  26  27
BRANCH  26  30
ATOM     30  C   VAL A  10      12.912  28.663  15.253  0.00  0.00    +0.227 C 
ATOM     31  O   VAL A  10      13.951  28.237  14.747  0.00  0.00    -0.286 OA
ENDBRANCH  26  30
ENDBRANCH  24  26
ENDBRANCH  21  22
BRANCH  21  32
ATOM     32  CB  THR A   9      12.837  33.370  12.799  0.00  0.00    +0.137 C 
ATOM     33  CG2 THR A   9      13.865  32.940  13.837  0.00  0.00    +0.034 C 
BRANCH  32  34
ATOM     34  OG1 THR A   9      13.475  34.154  11.780  0.00  0.00    -0.382 OA
ATOM     35  HG1 THR A   9      12.797  34.457  11.125  0.00  0.00    +0.210 HD
ENDBRANCH  32  34
ENDBRANCH  21  32
ENDBRANCH  18  21
ENDBRANCH  16  17
BRANCH  16  36
ATOM     36  CB  ASP A   8       8.348  32.541  10.146  0.00  0.00    +0.143 C 
BRANCH  36  37
ATOM     37  CG  ASP A   8       7.334  33.576   9.694  0.00  0.00    +0.367 C 
ATOM     38  OD2 ASP A   8       7.653  34.781   9.753  0.00  0.00    -0.246 OA
ATOM     39  OD1 ASP A   8       6.228  33.187   9.277  0.00  0.00    -0.246 OA
ENDBRANCH  36  37
ENDBRANCH  16  36
ENDBRANCH  13  16
ENDBRANCH  11  12
BRANCH  11  40
ATOM     40  CB  ASP A   7       7.778  31.851   5.439  0.00  0.00    +0.143 C 
BRANCH  40  41
ATOM     41  CG  ASP A   7       7.428  31.137   4.156  0.00  0.00    +0.367 C 
ATOM     42  OD2 ASP A   7       6.413  30.415   4.154  0.00  0.00    -0.246 OA
ATOM     43  OD1 ASP A   7       8.153  31.305   3.155  0.00  0.00    -0.246 OA
ENDBRANCH  40  41
ENDBRANCH  11  40
ENDBRANCH   9  11
ENDBRANCH   5   7
ENDBRANCH   2   5
BRANCH   1  44
ATOM     44  CA  GLY A   5      13.579  28.366   2.434  0.00  0.00    +0.176 C 
BRANCH  44  46
ATOM     45  C   THR A   4      14.826  30.442   2.422  0.00  0.00    +0.243 C 
ATOM     46  N   GLY A   5      14.778  29.144   2.707  0.00  0.00    -0.295 N 
ATOM     47  H   GLY A   5      15.607  28.680   3.130  0.00  0.00    +0.150 HD
ATOM     48  O   THR A   4      13.885  31.058   1.912  0.00  0.00    -0.273 OA
BRANCH  45  49
ATOM     49  CA  THR A   4      16.126  31.163   2.753  0.00  0.00    +0.176 C 
BRANCH  49  52
ATOM     50  C   ASP A   3      16.548  30.293   4.982  0.00  0.00    +0.241 C 
ATOM     51  O   ASP A   3      15.479  30.736   5.397  0.00  0.00    -0.273 OA
ATOM     52  N   THR A   4      16.946  30.433   3.717  0.00  0.00    -0.295 N 
ATOM     53  H   THR A   4      17.850  30.018   3.413  0.00  0.00    +0.150 HD
BRANCH  50  54
ATOM     54  CA  ASP A   3      17.470  29.525   5.923  0.00  0.00    +0.160 C 
BRANCH  54  56
ATOM     55  C   LEU A   2      19.621  30.344   6.716  0.00  0.00    +0.241 C 
ATOM     56  N   ASP A   3      18.297  30.357   6.792  0.00  0.00    -0.297 N 
ATOM     57  H   ASP A   3      17.836  30.976   7.489  0.00  0.00    +0.150 HD
ATOM     58  O   LEU A   2      20.241  29.731   5.846  0.00  0.00    -0.273 OA
BRANCH  55  59
ATOM     59  CA  LEU A   2      20.355  31.161   7.771  0.00  0.00    +0.149 C 
BRANCH  59  62
ATOM     60  C   LEU A   1      20.195  29.490   9.547  0.00  0.00    +0.238 C 
ATOM     61  O   LEU A   1      19.013  29.761   9.756  0.00  0.00    -0.274 OA
ATOM     62  N   LEU A   2      20.933  30.128   8.637  0.00  0.00    -0.297 N 
ATOM     63  H   LEU A   2      21.940  29.888   8.540  0.00  0.00    +0.150 HD
BRANCH  60  64
ATOM     64  CA  LEU A   1      20.885  28.393  10.359  0.00  0.00    +0.145 C 
BRANCH  64  65
ATOM     65  N   LEU A   1      20.686  28.571  11.782  0.00  0.00    -0.238 NA
ATOM     66  H   LEU A   1      19.802  28.230  12.210  0.00  0.00    +0.142 HD
ENDBRANCH  64  65
BRANCH  64  67
ATOM     67  CB  LEU A   1      20.324  27.026   9.957  0.00  0.00    +0.026 C 
BRANCH  67  68
ATOM     68  CG  LEU A   1      20.489  26.556   8.518  0.00  0.00    +0.002 C 
ATOM     69  CD2 LEU A   1      19.700  25.269   8.316  0.00  0.00    +0.000 C 
ATOM     70  CD1 LEU A   1      21.950  26.322   8.228  0.00  0.00    +0.000 C 
ENDBRANCH  67  68
ENDBRANCH  64  67
ENDBRANCH  60  64
ENDBRANCH  59  62
BRANCH  59  71
ATOM     71  CB  LEU A   2      21.453  32.004   7.127  0.00  0.00    +0.029 C 
BRANCH  71  72
ATOM     72  CG  LEU A   2      22.350  32.748   8.120  0.00  0.00    +0.002 C 
ATOM     73  CD2 LEU A   2      21.500  33.632   9.030  0.00  0.00    +0.000 C 
ATOM     74  CD1 LEU A   2      23.366  33.583   7.349  0.00  0.00    +0.000 C 
ENDBRANCH  71  72
ENDBRANCH  59  71
ENDBRANCH  55  59
ENDBRANCH  54  56
BRANCH  54  75
ATOM     75  CB  ASP A   3      16.642  28.622   6.840  0.00  0.00    +0.143 C 
BRANCH  75  76
ATOM     76  CG  ASP A   3      15.969  27.490   6.109  0.00  0.00    +0.367 C 
ATOM     77  OD2 ASP A   3      15.533  26.551   6.803  0.00  0.00    -0.246 OA
ATOM     78  OD1 ASP A   3      15.871  27.539   4.866  0.00  0.00    -0.246 OA
ENDBRANCH  75  76
ENDBRANCH  54  75
ENDBRANCH  50  54
ENDBRANCH  49  52
BRANCH  49  79
ATOM     79  CB  THR A   4      16.875  31.420   1.429  0.00  0.00    +0.137 C 
ATOM     80  CG2 THR A   4      18.086  32.298   1.672  0.00  0.00    +0.034 C 
BRANCH  79  81
ATOM     81  OG1 THR A   4      17.291  30.173   0.853  0.00  0.00    -0.382 OA
ATOM     82  HG1 THR A   4      16.495  29.611   0.675  0.00  0.00    +0.210 HD
ENDBRANCH  79  81
ENDBRANCH  49  79
ENDBRANCH  45  49
ENDBRANCH  44  46
ENDBRANCH   1  44
TORSDOF 35
REMARK  Name = ../refined-set-2016/1d4j/1d4j_pocket.pdb
REMARK  244 active torsions:
REMARK  status: ('A' for Active; 'I' for Inactive)
REMARK    1  A    between atoms: _1  and  _3
REMARK    2  A    between atoms: _3  and  _4
REMARK    3  A    between atoms: _3  and  _6
REMARK    4  A    between atoms: _6  and  _7
REMARK    5  A    between atoms: _7  and  _8
REMARK    6  A    between atoms: _8  and  _9
REMARK    7  A    between atoms: _18  and  _20
REMARK    8  A    between atoms: _20  and  _21
REMARK    9  A    between atoms: _20  and  _23
REMARK   10  A    between atoms: _23  and  _24
REMARK   11  A    between atoms: _27  and  _29
REMARK   12  A    between atoms: _29  and  _30
REMARK   13  A    between atoms: _29  and  _32
REMARK   14  A    between atoms: _32  and  _33
REMARK   15  A    between atoms: _36  and  _38
REMARK   16  A    between atoms: _38  and  _39
REMARK   17  A    between atoms: _38  and  _41
REMARK   18  A    between atoms: _41  and  _42
REMARK   19  A    between atoms: _45  and  _47
REMARK   20  A    between atoms: _47  and  _48
REMARK   21  A    between atoms: _47  and  _50
REMARK   22  A    between atoms: _50  and  _51
REMARK   23  A    between atoms: _54  and  _56
REMARK   24  A    between atoms: _56  and  _57
REMARK   25  A    between atoms: _56  and  _59
REMARK   26  A    between atoms: _59  and  _60
REMARK   27  A    between atoms: _63  and  _65
REMARK   28  A    between atoms: _65  and  _66
REMARK   29  A    between atoms: _68  and  _70
REMARK   30  A    between atoms: _70  and  _71
REMARK   31  A    between atoms: _74  and  _76
REMARK   32  A    between atoms: _76  and  _77
REMARK   33  A    between atoms: _76  and  _79
REMARK   34  A    between atoms: _79  and  _80
REMARK   35  A    between atoms: _83  and  _85
REMARK   36  A    between atoms: _85  and  _86
REMARK   37  A    between atoms: _85  and  _88
REMARK   38  A    between atoms: _88  and  _89
REMARK   39  A    between atoms: _92  and  _94
REMARK   40  A    between atoms: _94  and  _95
REMARK   41  A    between atoms: _94  and  _97
REMARK   42  A    between atoms: _97  and  _98
REMARK   43  A    between atoms: _101  and  _103
REMARK   44  A    between atoms: _103  and  _104
REMARK   45  A    between atoms: _103  and  _106
REMARK   46  A    between atoms: _109  and  _111
REMARK   47  A    between atoms: _111  and  _112
REMARK   48  A    between atoms: _111  and  _114
REMARK   49  A    between atoms: _114  and  _115
REMARK   50  A    between atoms: _115  and  _116
REMARK   51  A    between atoms: _116  and  _117
REMARK   52  A    between atoms: _117  and  _118
REMARK   53  A    between atoms: _122  and  _124
REMARK   54  A    between atoms: _124  and  _125
REMARK   55  A    between atoms: _124  and  _127
REMARK   56  A    between atoms: _127  and  _128
REMARK   57  A    between atoms: _128  and  _129
REMARK   58  A    between atoms: _131  and  _133
REMARK   59  A    between atoms: _133  and  _134
REMARK   60  A    between atoms: _133  and  _136
REMARK   61  A    between atoms: _136  and  _137
REMARK   62  A    between atoms: _140  and  _142
REMARK   63  A    between atoms: _142  and  _143
REMARK   64  A    between atoms: _145  and  _147
REMARK   65  A    between atoms: _147  and  _148
REMARK   66  A    between atoms: _150  and  _152
REMARK   67  A    between atoms: _152  and  _153
REMARK   68  A    between atoms: _152  and  _155
REMARK   69  A    between atoms: _155  and  _156
REMARK   70  A    between atoms: _159  and  _161
REMARK   71  A    between atoms: _161  and  _162
REMARK   72  A    between atoms: _164  and  _166
REMARK   73  A    between atoms: _166  and  _167
REMARK   74  A    between atoms: _169  and  _171
REMARK   75  A    between atoms: _171  and  _172
REMARK   76  A    between atoms: _171  and  _174
REMARK   77  A    between atoms: _174  and  _175
REMARK   78  A    between atoms: _181  and  _183
REMARK   79  A    between atoms: _183  and  _184
REMARK   80  A    between atoms: _183  and  _186
REMARK   81  A    between atoms: _186  and  _187
REMARK   82  A    between atoms: _190  and  _192
REMARK   83  A    between atoms: _192  and  _193
REMARK   84  A    between atoms: _192  and  _195
REMARK   85  A    between atoms: _198  and  _200
REMARK   86  A    between atoms: _200  and  _201
REMARK   87  A    between atoms: _200  and  _203
REMARK   88  A    between atoms: _203  and  _204
REMARK   89  A    between atoms: _207  and  _209
REMARK   90  A    between atoms: _209  and  _210
REMARK   91  A    between atoms: _209  and  _212
REMARK   92  A    between atoms: _212  and  _213
REMARK   93  A    between atoms: _217  and  _218
REMARK   94  A    between atoms: _223  and  _225
REMARK   95  A    between atoms: _225  and  _226
REMARK   96  A    between atoms: _225  and  _228
REMARK   97  A    between atoms: _231  and  _233
REMARK   98  A    between atoms: _233  and  _234
REMARK   99  A    between atoms: _233  and  _236
REMARK  100  A    between atoms: _236  and  _237
REMARK  101  A    between atoms: _242  and  _244
REMARK  102  A    between atoms: _244  and  _245
REMARK  103  A    between atoms: _244  and  _247
REMARK  104  A    between atoms: _247  and  _248
REMARK  105  A    between atoms: _251  and  _253
REMARK  106  A    between atoms: _253  and  _254
REMARK  107  A    between atoms: _253  and  _256
REMARK  108  A    between atoms: _256  and  _257
REMARK  109  A    between atoms: _260  and  _262
REMARK  110  A    between atoms: _262  and  _263
REMARK  111  A    between atoms: _265  and  _267
REMARK  112  A    between atoms: _267  and  _268
REMARK  113  A    between atoms: _267  and  _270
REMARK  114  A    between atoms: _270  and  _271
REMARK  115  A    between atoms: _271  and  _272
REMARK  116  A    between atoms: _272  and  _273
REMARK  117  A    between atoms: _282  and  _284
REMARK  118  A    between atoms: _284  and  _285
REMARK  119  A    between atoms: _284  and  _287
REMARK  120  A    between atoms: _287  and  _288
REMARK  121  A    between atoms: _293  and  _295
REMARK  122  A    between atoms: _295  and  _296
REMARK  123  A    between atoms: _295  and  _298
REMARK  124  A    between atoms: _298  and  _299
REMARK  125  A    between atoms: _299  and  _300
REMARK  126  A    between atoms: _300  and  _301
REMARK  127  A    between atoms: _310  and  _312
REMARK  128  A    between atoms: _312  and  _313
REMARK  129  A    between atoms: _312  and  _315
REMARK  130  A    between atoms: _315  and  _316
REMARK  131  A    between atoms: _319  and  _321
REMARK  132  A    between atoms: _321  and  _322
REMARK  133  A    between atoms: _321  and  _324
REMARK  134  A    between atoms: _324  and  _325
REMARK  135  A    between atoms: _328  and  _330
REMARK  136  A    between atoms: _330  and  _331
REMARK  137  A    between atoms: _330  and  _333
REMARK  138  A    between atoms: _333  and  _334
REMARK  139  A    between atoms: _337  and  _339
REMARK  140  A    between atoms: _339  and  _340
REMARK  141  A    between atoms: _339  and  _342
REMARK  142  A    between atoms: _342  and  _343
REMARK  143  A    between atoms: _346  and  _348
REMARK  144  A    between atoms: _348  and  _349
REMARK  145  A    between atoms: _348  and  _351
REMARK  146  A    between atoms: _351  and  _352
REMARK  147  A    between atoms: _355  and  _357
REMARK  148  A    between atoms: _357  and  _358
REMARK  149  A    between atoms: _360  and  _362
REMARK  150  A    between atoms: _362  and  _363
REMARK  151  A    between atoms: _366  and  _368
REMARK  152  A    between atoms: _368  and  _369
REMARK  153  A    between atoms: _368  and  _371
REMARK  154  A    between atoms: _371  and  _372
REMARK  155  A    between atoms: _375  and  _377
REMARK  156  A    between atoms: _377  and  _378
REMARK  157  A    between atoms: _377  and  _380
REMARK  158  A    between atoms: _380  and  _381
REMARK  159  A    between atoms: _384  and  _386
REMARK  160  A    between atoms: _386  and  _387
REMARK  161  A    between atoms: _386  and  _389
REMARK  162  A    between atoms: _389  and  _390
REMARK  163  A    between atoms: _393  and  _395
REMARK  164  A    between atoms: _395  and  _396
REMARK  165  A    between atoms: _395  and  _398
REMARK  166  A    between atoms: _401  and  _403
REMARK  167  A    between atoms: _403  and  _404
REMARK  168  A    between atoms: _403  and  _406
REMARK  169  A    between atoms: _406  and  _407
REMARK  170  A    between atoms: _410  and  _412
REMARK  171  A    between atoms: _412  and  _413
REMARK  172  A    between atoms: _412  and  _415
REMARK  173  A    between atoms: _415  and  _416
REMARK  174  A    between atoms: _416  and  _417
REMARK  175  A    between atoms: _417  and  _418
REMARK  176  A    between atoms: _418  and  _419
REMARK  177  A    between atoms: _423  and  _425
REMARK  178  A    between atoms: _425  and  _426
REMARK  179  A    between atoms: _425  and  _428
REMARK  180  A    between atoms: _428  and  _429
REMARK  181  A    between atoms: _429  and  _430
REMARK  182  A    between atoms: _432  and  _434
REMARK  183  A    between atoms: _434  and  _435
REMARK  184  A    between atoms: _434  and  _437
REMARK  185  A    between atoms: _437  and  _438
REMARK  186  A    between atoms: _441  and  _443
REMARK  187  A    between atoms: _443  and  _444
REMARK  188  A    between atoms: _446  and  _448
REMARK  189  A    between atoms: _448  and  _449
REMARK  190  A    between atoms: _451  and  _453
REMARK  191  A    between atoms: _453  and  _454
REMARK  192  A    between atoms: _453  and  _456
REMARK  193  A    between atoms: _456  and  _457
REMARK  194  A    between atoms: _460  and  _462
REMARK  195  A    between atoms: _462  and  _463
REMARK  196  A    between atoms: _465  and  _467
REMARK  197  A    between atoms: _467  and  _468
REMARK  198  A    between atoms: _470  and  _472
REMARK  199  A    between atoms: _472  and  _473
REMARK  200  A    between atoms: _472  and  _475
REMARK  201  A    between atoms: _475  and  _476
REMARK  202  A    between atoms: _482  and  _484
REMARK  203  A    between atoms: _484  and  _485
REMARK  204  A    between atoms: _484  and  _487
REMARK  205  A    between atoms: _487  and  _488
REMARK  206  A    between atoms: _491  and  _493
REMARK  207  A    between atoms: _493  and  _494
REMARK  208  A    between atoms: _493  and  _496
REMARK  209  A    between atoms: _499  and  _501
REMARK  210  A    between atoms: _501  and  _502
REMARK  211  A    between atoms: _501  and  _504
REMARK  212  A    between atoms: _504  and  _505
REMARK  213  A    between atoms: _508  and  _510
REMARK  214  A    between atoms: _510  and  _511
REMARK  215  A    between atoms: _510  and  _513
REMARK  216  A    between atoms: _513  and  _514
REMARK  217  A    between atoms: _518  and  _519
REMARK  218  A    between atoms: _524  and  _526
REMARK  219  A    between atoms: _526  and  _527
REMARK  220  A    between atoms: _526  and  _529
REMARK  221  A    between atoms: _532  and  _534
REMARK  222  A    between atoms: _534  and  _535
REMARK  223  A    between atoms: _534  and  _537
REMARK  224  A    between atoms: _537  and  _538
REMARK  225  A    between atoms: _543  and  _545
REMARK  226  A    between atoms: _545  and  _546
REMARK  227  A    between atoms: _545  and  _548
REMARK  228  A    between atoms: _548  and  _549
REMARK  229  A    between atoms: _552  and  _554
REMARK  230  A    between atoms: _554  and  _555
REMARK  231  A    between atoms: _554  and  _557
REMARK  232  A    between atoms: _557  and  _558
REMARK  233  A    between atoms: _561  and  _563
REMARK  234  A    between atoms: _563  and  _564
REMARK  235  A    between atoms: _566  and  _568
REMARK  236  A    between atoms: _568  and  _569
REMARK  237  A    between atoms: _568  and  _571
REMARK  238  A    between atoms: _571  and  _572
REMARK  239  A    between atoms: _572  and  _573
REMARK  240  A    between atoms: _573  and  _574
REMARK  241  A    between atoms: _583  and  _585
REMARK  242  A    between atoms: _585  and  _586
REMARK  243  A    between atoms: _585  and  _588
REMARK  244  A    between atoms: _588  and  _589
REMARK                            x       y       z     vdW  Elec       q    Type
REMARK                         _______ _______ _______ _____ _____    ______ ____
ROOT
ATOM      1  C   GLY A   5       8.103  20.116   5.841  0.00  0.00    +0.243 C 
ATOM      2  N   ILE A   6       9.350  19.709   5.647  0.00  0.00    -0.297 N 
ATOM      3  H   ILE A   6      10.135  20.370   5.814  0.00  0.00    +0.150 HD
ATOM      4  O   GLY A   5       7.125  19.407   5.618  0.00  0.00    -0.273 OA
ENDROOT
BRANCH   2   5
ATOM      5  CA  ILE A   6       9.637  18.357   5.206  0.00  0.00    +0.149 C 
BRANCH   5   6
ATOM      6  C   ILE A   6       9.288  17.453   6.387  0.00  0.00    +0.241 C 
ATOM      7  O   ILE A   6       9.736  17.691   7.504  0.00  0.00    -0.273 OA
ATOM      8  N   GLY A   7       8.484  16.428   6.152  0.00  0.00    -0.295 N 
ATOM      9  H   GLY A   7       8.097  16.268   5.200  0.00  0.00    +0.150 HD
BRANCH   8  10
ATOM     10  CA  GLY A   7       8.150  15.531   7.242  0.00  0.00    +0.176 C 
BRANCH  10  11
ATOM     11  C   GLY A   7       6.788  15.769   7.857  0.00  0.00    +0.243 C 
ATOM     12  O   GLY A   7       6.231  14.878   8.493  0.00  0.00    -0.273 OA
ATOM     13  N   GLY A   8       6.245  16.965   7.678  0.00  0.00    -0.295 N 
ATOM     14  H   GLY A   8       6.754  17.697   7.142  0.00  0.00    +0.150 HD
BRANCH  13  15
ATOM     15  CA  GLY A   8       4.938  17.245   8.234  0.00  0.00    +0.176 C 
BRANCH  15  16
ATOM     16  C   GLY A   8       4.882  18.532   9.027  0.00  0.00    +0.243 C 
ATOM     17  N   PHE A   9       3.851  18.652   9.854  0.00  0.00    -0.297 N 
ATOM     18  H   PHE A   9       3.169  17.870   9.929  0.00  0.00    +0.150 HD
ATOM     19  O   GLY A   8       5.758  19.392   8.909  0.00  0.00    -0.273 OA
BRANCH  17  20
ATOM     20  CA  PHE A   9       3.648  19.847  10.659  0.00  0.00    +0.153 C 
BRANCH  20  21
ATOM     21  C   PHE A   9       4.037  19.702  12.123  0.00  0.00    +0.241 C 
ATOM     22  N   ILE A  10       4.393  20.828  12.735  0.00  0.00    -0.298 N 
ATOM     23  H   ILE A  10       4.438  21.708  12.182  0.00  0.00    +0.150 HD
ATOM     24  O   PHE A   9       4.011  18.607  12.685  0.00  0.00    -0.273 OA
BRANCH  22  25
ATOM     25  CA  ILE A  10       4.722  20.870  14.153  0.00  0.00    +0.137 C 
BRANCH  25  26
ATOM     26  C   ILE A  10       3.975  22.065  14.726  0.00  0.00    +0.227 C 
ATOM     27  O   ILE A  10       3.690  23.032  14.014  0.00  0.00    -0.286 OA
ENDBRANCH  25  26
BRANCH  25  28
ATOM     28  CB  ILE A  10       6.241  21.056  14.432  0.00  0.00    +0.026 C 
ATOM     29  CG2 ILE A  10       7.001  19.815  14.006  0.00  0.00    +0.002 C 
BRANCH  28  30
ATOM     30  CG1 ILE A  10       6.760  22.317  13.734  0.00  0.00    +0.002 C 
ATOM     31  CD1 ILE A  10       8.142  22.739  14.191  0.00  0.00    +0.000 C 
ENDBRANCH  28  30
ENDBRANCH  25  28
ENDBRANCH  22  25
ENDBRANCH  20  21
BRANCH  20  32
ATOM     32  CB  PHE A   9       2.176  20.270  10.609  0.00  0.00    +0.055 C 
BRANCH  32  33
ATOM     33  CG  PHE A   9       1.728  20.783   9.277  0.00  0.00    -0.020 A 
ATOM     34  CD2 PHE A   9       1.496  22.141   9.090  0.00  0.00    -0.004 A 
ATOM     35  CE2 PHE A   9       1.074  22.631   7.863  0.00  0.00    -0.000 A 
ATOM     36  CZ  PHE A   9       0.878  21.755   6.800  0.00  0.00    -0.000 A 
ATOM     37  CE1 PHE A   9       1.106  20.394   6.975  0.00  0.00    -0.000 A 
ATOM     38  CD1 PHE A   9       1.530  19.914   8.210  0.00  0.00    -0.004 A 
ENDBRANCH  32  33
ENDBRANCH  20  32
ENDBRANCH  17  20
ENDBRANCH  15  16
ENDBRANCH  13  15
ENDBRANCH  10  11
ENDBRANCH   8  10
ENDBRANCH   5   6
BRANCH   5  39
ATOM     39  CB  ILE A   6      11.144  18.174   4.895  0.00  0.00    +0.027 C 
ATOM     40  CG2 ILE A   6      11.460  16.697   4.682  0.00  0.00    +0.002 C 
BRANCH  39  41
ATOM     41  CG1 ILE A   6      11.537  19.023   3.685  0.00  0.00    +0.002 C 
ATOM     42  CD1 ILE A   6      10.831  18.635   2.421  0.00  0.00    +0.000 C 
ENDBRANCH  39  41
ENDBRANCH   5  39
ENDBRANCH   2   5
BRANCH   1  43
ATOM     43  CA  GLY A   5       7.923  21.529   6.344  0.00  0.00    +0.176 C 
BRANCH  43  45
ATOM     44  C   GLY A   4       5.865  22.596   7.007  0.00  0.00    +0.243 C 
ATOM     45  N   GLY A   5       6.688  21.561   7.102  0.00  0.00    -0.295 N 
ATOM     46  H   GLY A   5       6.445  20.765   7.726  0.00  0.00    +0.150 HD
ATOM     47  O   GLY A   4       6.099  23.579   6.311  0.00  0.00    -0.273 OA
BRANCH  44  48
ATOM     48  CA  GLY A   4       4.598  22.507   7.829  0.00  0.00    +0.176 C 
BRANCH  48  51
ATOM     49  C   ILE A   3       4.279  23.803   9.831  0.00  0.00    +0.241 C 
ATOM     50  O   ILE A   3       4.578  22.843  10.540  0.00  0.00    -0.273 OA
ATOM     51  N   GLY A   4       4.260  23.744   8.505  0.00  0.00    -0.295 N 
ATOM     52  H   GLY A   4       4.003  24.586   7.951  0.00  0.00    +0.150 HD
BRANCH  49  53
ATOM     53  CA  ILE A   3       3.882  25.139  10.443  0.00  0.00    +0.149 C 
BRANCH  53  55
ATOM     54  C   MET A   2       1.835  25.395  11.687  0.00  0.00    +0.241 C 
ATOM     55  N   ILE A   3       3.062  24.896  11.623  0.00  0.00    -0.297 N 
ATOM     56  H   ILE A   3       3.438  24.333  12.412  0.00  0.00    +0.150 HD
ATOM     57  O   MET A   2       1.369  26.110  10.801  0.00  0.00    -0.273 OA
BRANCH  54  58
ATOM     58  CA  MET A   2       1.011  25.077  12.933  0.00  0.00    +0.149 C 
BRANCH  58  61
ATOM     59  C   LYS A   1       0.875  26.741  14.692  0.00  0.00    +0.238 C 
ATOM     60  O   LYS A   1       1.549  26.067  15.463  0.00  0.00    -0.274 OA
ATOM     61  N   MET A   2       0.553  26.345  13.469  0.00  0.00    -0.297 N 
ATOM     62  H   MET A   2      -0.043  26.959  12.878  0.00  0.00    +0.150 HD
BRANCH  59  63
ATOM     63  CA  LYS A   1       0.342  28.094  15.115  0.00  0.00    +0.145 C 
BRANCH  63  64
ATOM     64  N   LYS A   1       0.281  28.112  16.560  0.00  0.00    -0.238 NA
ATOM     65  H   LYS A   1       0.934  27.515  17.107  0.00  0.00    +0.142 HD
ENDBRANCH  63  64
BRANCH  63  66
ATOM     66  CB  LYS A   1       1.272  29.204  14.611  0.00  0.00    +0.026 C 
BRANCH  66  67
ATOM     67  CG  LYS A   1       1.349  29.295  13.099  0.00  0.00    -0.000 C 
BRANCH  67  68
ATOM     68  CD  LYS A   1       2.175  30.483  12.651  0.00  0.00    -0.024 C 
BRANCH  68  69
ATOM     69  CE  LYS A   1       2.166  30.599  11.135  0.00  0.00    -0.086 C 
BRANCH  69  70
ATOM     70  NZ  LYS A   1       2.892  31.811  10.677  0.00  0.00    +0.380 N 
ATOM     71  HZ1 LYS A   1       2.437  32.657  11.075  0.00  0.00    -0.089 HD
ATOM     72  HZ2 LYS A   1       3.880  31.764  10.998  0.00  0.00    -0.089 HD
ATOM     73  HZ3 LYS A   1       2.866  31.858   9.638  0.00  0.00    -0.089 HD
ENDBRANCH  69  70
ENDBRANCH  68  69
ENDBRANCH  67  68
ENDBRANCH  66  67
ENDBRANCH  63  66
ENDBRANCH  59  63
ENDBRANCH  58  61
BRANCH  58  74
ATOM     74  CB  MET A   2      -0.193  24.214  12.546  0.00  0.00    +0.041 C 
BRANCH  74  75
ATOM     75  CG  MET A   2       0.042  22.733  12.660  0.00  0.00    +0.060 C 
BRANCH  75  76
ATOM     76  SD  MET A   2       0.128  22.211  14.382  0.00  0.00    -0.139 S 
ATOM     77  CE  MET A   2      -1.600  21.806  14.675  0.00  0.00    +0.069 C 
ENDBRANCH  75  76
ENDBRANCH  74  75
ENDBRANCH  58  74
ENDBRANCH  54  58
ENDBRANCH  53  55
BRANCH  53  78
ATOM     78  CB  ILE A   3       5.143  25.971  10.766  0.00  0.00    +0.027 C 
ATOM     79  CG2 ILE A   3       4.739  27.378  11.193  0.00  0.00    +0.002 C 
BRANCH  78  80
ATOM     80  CG1 ILE A   3       5.969  25.281  11.848  0.00  0.00    +0.002 C 
ATOM     81  CD1 ILE A   3       7.259  26.015  12.197  0.00  0.00    +0.000 C 
ENDBRANCH  78  80
ENDBRANCH  53  78
ENDBRANCH  49  53
ENDBRANCH  48  51
ENDBRANCH  44  48
ENDBRANCH  43  45
ENDBRANCH   1  43
TORSDOF 36
REMARK  Name = ../refined-set-2016/1d4j/1d4j_pocket.pdb
REMARK  244 active torsions:
REMARK  status: ('A' for Active; 'I' for Inactive)
REMARK    1  A    between atoms: _1  and  _3
REMARK    2  A    between atoms: _3  and  _4
REMARK    3  A    between atoms: _3  and  _6
REMARK    4  A    between atoms: _6  and  _7
REMARK    5  A    between atoms: _7  and  _8
REMARK    6  A    between atoms: _8  and  _9
REMARK    7  A    between atoms: _18  and  _20
REMARK    8  A    between atoms: _20  and  _21
REMARK    9  A    between atoms: _20  and  _23
REMARK   10  A    between atoms: _23  and  _24
REMARK   11  A    between atoms: _27  and  _29
REMARK   12  A    between atoms: _29  and  _30
REMARK   13  A    between atoms: _29  and  _32
REMARK   14  A    between atoms: _32  and  _33
REMARK   15  A    between atoms: _36  and  _38
REMARK   16  A    between atoms: _38  and  _39
REMARK   17  A    between atoms: _38  and  _41
REMARK   18  A    between atoms: _41  and  _42
REMARK   19  A    between atoms: _45  and  _47
REMARK   20  A    between atoms: _47  and  _48
REMARK   21  A    between atoms: _47  and  _50
REMARK   22  A    between atoms: _50  and  _51
REMARK   23  A    between atoms: _54  and  _56
REMARK   24  A    between atoms: _56  and  _57
REMARK   25  A    between atoms: _56  and  _59
REMARK   26  A    between atoms: _59  and  _60
REMARK   27  A    between atoms: _63  and  _65
REMARK   28  A    between atoms: _65  and  _66
REMARK   29  A    between atoms: _68  and  _70
REMARK   30  A    between atoms: _70  and  _71
REMARK   31  A    between atoms: _74  and  _76
REMARK   32  A    between atoms: _76  and  _77
REMARK   33  A    between atoms: _76  and  _79
REMARK   34  A    between atoms: _79  and  _80
REMARK   35  A    between atoms: _83  and  _85
REMARK   36  A    between atoms: _85  and  _86
REMARK   37  A    between atoms: _85  and  _88
REMARK   38  A    between atoms: _88  and  _89
REMARK   39  A    between atoms: _92  and  _94
REMARK   40  A    between atoms: _94  and  _95
REMARK   41  A    between atoms: _94  and  _97
REMARK   42  A    between atoms: _97  and  _98
REMARK   43  A    between atoms: _101  and  _103
REMARK   44  A    between atoms: _103  and  _104
REMARK   45  A    between atoms: _103  and  _106
REMARK   46  A    between atoms: _109  and  _111
REMARK   47  A    between atoms: _111  and  _112
REMARK   48  A    between atoms: _111  and  _114
REMARK   49  A    between atoms: _114  and  _115
REMARK   50  A    between atoms: _115  and  _116
REMARK   51  A    between atoms: _116  and  _117
REMARK   52  A    between atoms: _117  and  _118
REMARK   53  A    between atoms: _122  and  _124
REMARK   54  A    between atoms: _124  and  _125
REMARK   55  A    between atoms: _124  and  _127
REMARK   56  A    between atoms: _127  and  _128
REMARK   57  A    between atoms: _128  and  _129
REMARK   58  A    between atoms: _131  and  _133
REMARK   59  A    between atoms: _133  and  _134
REMARK   60  A    between atoms: _133  and  _136
REMARK   61  A    between atoms: _136  and  _137
REMARK   62  A    between atoms: _140  and  _142
REMARK   63  A    between atoms: _142  and  _143
REMARK   64  A    between atoms: _145  and  _147
REMARK   65  A    between atoms: _147  and  _148
REMARK   66  A    between atoms: _150  and  _152
REMARK   67  A    between atoms: _152  and  _153
REMARK   68  A    between atoms: _152  and  _155
REMARK   69  A    between atoms: _155  and  _156
REMARK   70  A    between atoms: _159  and  _161
REMARK   71  A    between atoms: _161  and  _162
REMARK   72  A    between atoms: _164  and  _166
REMARK   73  A    between atoms: _166  and  _167
REMARK   74  A    between atoms: _169  and  _171
REMARK   75  A    between atoms: _171  and  _172
REMARK   76  A    between atoms: _171  and  _174
REMARK   77  A    between atoms: _174  and  _175
REMARK   78  A    between atoms: _181  and  _183
REMARK   79  A    between atoms: _183  and  _184
REMARK   80  A    between atoms: _183  and  _186
REMARK   81  A    between atoms: _186  and  _187
REMARK   82  A    between atoms: _190  and  _192
REMARK   83  A    between atoms: _192  and  _193
REMARK   84  A    between atoms: _192  and  _195
REMARK   85  A    between atoms: _198  and  _200
REMARK   86  A    between atoms: _200  and  _201
REMARK   87  A    between atoms: _200  and  _203
REMARK   88  A    between atoms: _203  and  _204
REMARK   89  A    between atoms: _207  and  _209
REMARK   90  A    between atoms: _209  and  _210
REMARK   91  A    between atoms: _209  and  _212
REMARK   92  A    between atoms: _212  and  _213
REMARK   93  A    between atoms: _217  and  _218
REMARK   94  A    between atoms: _223  and  _225
REMARK   95  A    between atoms: _225  and  _226
REMARK   96  A    between atoms: _225  and  _228
REMARK   97  A    between atoms: _231  and  _233
REMARK   98  A    between atoms: _233  and  _234
REMARK   99  A    between atoms: _233  and  _236
REMARK  100  A    between atoms: _236  and  _237
REMARK  101  A    between atoms: _242  and  _244
REMARK  102  A    between atoms: _244  and  _245
REMARK  103  A    between atoms: _244  and  _247
REMARK  104  A    between atoms: _247  and  _248
REMARK  105  A    between atoms: _251  and  _253
REMARK  106  A    between atoms: _253  and  _254
REMARK  107  A    between atoms: _253  and  _256
REMARK  108  A    between atoms: _256  and  _257
REMARK  109  A    between atoms: _260  and  _262
REMARK  110  A    between atoms: _262  and  _263
REMARK  111  A    between atoms: _265  and  _267
REMARK  112  A    between atoms: _267  and  _268
REMARK  113  A    between atoms: _267  and  _270
REMARK  114  A    between atoms: _270  and  _271
REMARK  115  A    between atoms: _271  and  _272
REMARK  116  A    between atoms: _272  and  _273
REMARK  117  A    between atoms: _282  and  _284
REMARK  118  A    between atoms: _284  and  _285
REMARK  119  A    between atoms: _284  and  _287
REMARK  120  A    between atoms: _287  and  _288
REMARK  121  A    between atoms: _293  and  _295
REMARK  122  A    between atoms: _295  and  _296
REMARK  123  A    between atoms: _295  and  _298
REMARK  124  A    between atoms: _298  and  _299
REMARK  125  A    between atoms: _299  and  _300
REMARK  126  A    between atoms: _300  and  _301
REMARK  127  A    between atoms: _310  and  _312
REMARK  128  A    between atoms: _312  and  _313
REMARK  129  A    between atoms: _312  and  _315
REMARK  130  A    between atoms: _315  and  _316
REMARK  131  A    between atoms: _319  and  _321
REMARK  132  A    between atoms: _321  and  _322
REMARK  133  A    between atoms: _321  and  _324
REMARK  134  A    between atoms: _324  and  _325
REMARK  135  A    between atoms: _328  and  _330
REMARK  136  A    between atoms: _330  and  _331
REMARK  137  A    between atoms: _330  and  _333
REMARK  138  A    between atoms: _333  and  _334
REMARK  139  A    between atoms: _337  and  _339
REMARK  140  A    between atoms: _339  and  _340
REMARK  141  A    between atoms: _339  and  _342
REMARK  142  A    between atoms: _342  and  _343
REMARK  143  A    between atoms: _346  and  _348
REMARK  144  A    between atoms: _348  and  _349
REMARK  145  A    between atoms: _348  and  _351
REMARK  146  A    between atoms: _351  and  _352
REMARK  147  A    between atoms: _355  and  _357
REMARK  148  A    between atoms: _357  and  _358
REMARK  149  A    between atoms: _360  and  _362
REMARK  150  A    between atoms: _362  and  _363
REMARK  151  A    between atoms: _366  and  _368
REMARK  152  A    between atoms: _368  and  _369
REMARK  153  A    between atoms: _368  and  _371
REMARK  154  A    between atoms: _371  and  _372
REMARK  155  A    between atoms: _375  and  _377
REMARK  156  A    between atoms: _377  and  _378
REMARK  157  A    between atoms: _377  and  _380
REMARK  158  A    between atoms: _380  and  _381
REMARK  159  A    between atoms: _384  and  _386
REMARK  160  A    between atoms: _386  and  _387
REMARK  161  A    between atoms: _386  and  _389
REMARK  162  A    between atoms: _389  and  _390
REMARK  163  A    between atoms: _393  and  _395
REMARK  164  A    between atoms: _395  and  _396
REMARK  165  A    between atoms: _395  and  _398
REMARK  166  A    between atoms: _401  and  _403
REMARK  167  A    between atoms: _403  and  _404
REMARK  168  A    between atoms: _403  and  _406
REMARK  169  A    between atoms: _406  and  _407
REMARK  170  A    between atoms: _410  and  _412
REMARK  171  A    between atoms: _412  and  _413
REMARK  172  A    between atoms: _412  and  _415
REMARK  173  A    between atoms: _415  and  _416
REMARK  174  A    between atoms: _416  and  _417
REMARK  175  A    between atoms: _417  and  _418
REMARK  176  A    between atoms: _418  and  _419
REMARK  177  A    between atoms: _423  and  _425
REMARK  178  A    between atoms: _425  and  _426
REMARK  179  A    between atoms: _425  and  _428
REMARK  180  A    between atoms: _428  and  _429
REMARK  181  A    between atoms: _429  and  _430
REMARK  182  A    between atoms: _432  and  _434
REMARK  183  A    between atoms: _434  and  _435
REMARK  184  A    between atoms: _434  and  _437
REMARK  185  A    between atoms: _437  and  _438
REMARK  186  A    between atoms: _441  and  _443
REMARK  187  A    between atoms: _443  and  _444
REMARK  188  A    between atoms: _446  and  _448
REMARK  189  A    between atoms: _448  and  _449
REMARK  190  A    between atoms: _451  and  _453
REMARK  191  A    between atoms: _453  and  _454
REMARK  192  A    between atoms: _453  and  _456
REMARK  193  A    between atoms: _456  and  _457
REMARK  194  A    between atoms: _460  and  _462
REMARK  195  A    between atoms: _462  and  _463
REMARK  196  A    between atoms: _465  and  _467
REMARK  197  A    between atoms: _467  and  _468
REMARK  198  A    between atoms: _470  and  _472
REMARK  199  A    between atoms: _472  and  _473
REMARK  200  A    between atoms: _472  and  _475
REMARK  201  A    between atoms: _475  and  _476
REMARK  202  A    between atoms: _482  and  _484
REMARK  203  A    between atoms: _484  and  _485
REMARK  204  A    between atoms: _484  and  _487
REMARK  205  A    between atoms: _487  and  _488
REMARK  206  A    between atoms: _491  and  _493
REMARK  207  A    between atoms: _493  and  _494
REMARK  208  A    between atoms: _493  and  _496
REMARK  209  A    between atoms: _499  and  _501
REMARK  210  A    between atoms: _501  and  _502
REMARK  211  A    between atoms: _501  and  _504
REMARK  212  A    between atoms: _504  and  _505
REMARK  213  A    between atoms: _508  and  _510
REMARK  214  A    between atoms: _510  and  _511
REMARK  215  A    between atoms: _510  and  _513
REMARK  216  A    between atoms: _513  and  _514
REMARK  217  A    between atoms: _518  and  _519
REMARK  218  A    between atoms: _524  and  _526
REMARK  219  A    between atoms: _526  and  _527
REMARK  220  A    between atoms: _526  and  _529
REMARK  221  A    between atoms: _532  and  _534
REMARK  222  A    between atoms: _534  and  _535
REMARK  223  A    between atoms: _534  and  _537
REMARK  224  A    between atoms: _537  and  _538
REMARK  225  A    between atoms: _543  and  _545
REMARK  226  A    between atoms: _545  and  _546
REMARK  227  A    between atoms: _545  and  _548
REMARK  228  A    between atoms: _548  and  _549
REMARK  229  A    between atoms: _552  and  _554
REMARK  230  A    between atoms: _554  and  _555
REMARK  231  A    between atoms: _554  and  _557
REMARK  232  A    between atoms: _557  and  _558
REMARK  233  A    between atoms: _561  and  _563
REMARK  234  A    between atoms: _563  and  _564
REMARK  235  A    between atoms: _566  and  _568
REMARK  236  A    between atoms: _568  and  _569
REMARK  237  A    between atoms: _568  and  _571
REMARK  238  A    between atoms: _571  and  _572
REMARK  239  A    between atoms: _572  and  _573
REMARK  240  A    between atoms: _573  and  _574
REMARK  241  A    between atoms: _583  and  _585
REMARK  242  A    between atoms: _585  and  _586
REMARK  243  A    between atoms: _585  and  _588
REMARK  244  A    between atoms: _588  and  _589
REMARK                            x       y       z     vdW  Elec       q    Type
REMARK                         _______ _______ _______ _____ _____    ______ ____
ROOT
ATOM      1  CA  VAL A   1       4.765  26.228  17.650  0.00  0.00    +0.133 C 
ENDROOT
BRANCH   1   2
ATOM      2  CB  VAL A   1       5.659  26.853  16.553  0.00  0.00    +0.023 C 
ATOM      3  CG2 VAL A   1       6.527  25.785  15.904  0.00  0.00    +0.002 C 
ATOM      4  CG1 VAL A   1       4.786  27.529  15.504  0.00  0.00    +0.002 C 
ENDBRANCH   1   2
BRANCH   1   5
ATOM      5  N   VAL A   1       3.827  25.276  17.084  0.00  0.00    -0.239 NA
ATOM      6  H   VAL A   1       3.034  25.622  16.506  0.00  0.00    +0.142 HD
ENDBRANCH   1   5
BRANCH   1   7
ATOM      7  C   VAL A   1       4.016  27.349  18.343  0.00  0.00    +0.224 C 
ATOM      8  O   VAL A   1       2.802  27.482  18.195  0.00  0.00    -0.287 OA
ENDBRANCH   1   7
TORSDOF 3
REMARK  Name = ../refined-set-2016/1d4j/1d4j_pocket.pdb
REMARK  244 active torsions:
REMARK  status: ('A' for Active; 'I' for Inactive)
REMARK    1  A    between atoms: _1  and  _3
REMARK    2  A    between atoms: _3  and  _4
REMARK    3  A    between atoms: _3  and  _6
REMARK    4  A    between atoms: _6  and  _7
REMARK    5  A    between atoms: _7  and  _8
REMARK    6  A    between atoms: _8  and  _9
REMARK    7  A    between atoms: _18  and  _20
REMARK    8  A    between atoms: _20  and  _21
REMARK    9  A    between atoms: _20  and  _23
REMARK   10  A    between atoms: _23  and  _24
REMARK   11  A    between atoms: _27  and  _29
REMARK   12  A    between atoms: _29  and  _30
REMARK   13  A    between atoms: _29  and  _32
REMARK   14  A    between atoms: _32  and  _33
REMARK   15  A    between atoms: _36  and  _38
REMARK   16  A    between atoms: _38  and  _39
REMARK   17  A    between atoms: _38  and  _41
REMARK   18  A    between atoms: _41  and  _42
REMARK   19  A    between atoms: _45  and  _47
REMARK   20  A    between atoms: _47  and  _48
REMARK   21  A    between atoms: _47  and  _50
REMARK   22  A    between atoms: _50  and  _51
REMARK   23  A    between atoms: _54  and  _56
REMARK   24  A    between atoms: _56  and  _57
REMARK   25  A    between atoms: _56  and  _59
REMARK   26  A    between atoms: _59  and  _60
REMARK   27  A    between atoms: _63  and  _65
REMARK   28  A    between atoms: _65  and  _66
REMARK   29  A    between atoms: _68  and  _70
REMARK   30  A    between atoms: _70  and  _71
REMARK   31  A    between atoms: _74  and  _76
REMARK   32  A    between atoms: _76  and  _77
REMARK   33  A    between atoms: _76  and  _79
REMARK   34  A    between atoms: _79  and  _80
REMARK   35  A    between atoms: _83  and  _85
REMARK   36  A    between atoms: _85  and  _86
REMARK   37  A    between atoms: _85  and  _88
REMARK   38  A    between atoms: _88  and  _89
REMARK   39  A    between atoms: _92  and  _94
REMARK   40  A    between atoms: _94  and  _95
REMARK   41  A    between atoms: _94  and  _97
REMARK   42  A    between atoms: _97  and  _98
REMARK   43  A    between atoms: _101  and  _103
REMARK   44  A    between atoms: _103  and  _104
REMARK   45  A    between atoms: _103  and  _106
REMARK   46  A    between atoms: _109  and  _111
REMARK   47  A    between atoms: _111  and  _112
REMARK   48  A    between atoms: _111  and  _114
REMARK   49  A    between atoms: _114  and  _115
REMARK   50  A    between atoms: _115  and  _116
REMARK   51  A    between atoms: _116  and  _117
REMARK   52  A    between atoms: _117  and  _118
REMARK   53  A    between atoms: _122  and  _124
REMARK   54  A    between atoms: _124  and  _125
REMARK   55  A    between atoms: _124  and  _127
REMARK   56  A    between atoms: _127  and  _128
REMARK   57  A    between atoms: _128  and  _129
REMARK   58  A    between atoms: _131  and  _133
REMARK   59  A    between atoms: _133  and  _134
REMARK   60  A    between atoms: _133  and  _136
REMARK   61  A    between atoms: _136  and  _137
REMARK   62  A    between atoms: _140  and  _142
REMARK   63  A    between atoms: _142  and  _143
REMARK   64  A    between atoms: _145  and  _147
REMARK   65  A    between atoms: _147  and  _148
REMARK   66  A    between atoms: _150  and  _152
REMARK   67  A    between atoms: _152  and  _153
REMARK   68  A    between atoms: _152  and  _155
REMARK   69  A    between atoms: _155  and  _156
REMARK   70  A    between atoms: _159  and  _161
REMARK   71  A    between atoms: _161  and  _162
REMARK   72  A    between atoms: _164  and  _166
REMARK   73  A    between atoms: _166  and  _167
REMARK   74  A    between atoms: _169  and  _171
REMARK   75  A    between atoms: _171  and  _172
REMARK   76  A    between atoms: _171  and  _174
REMARK   77  A    between atoms: _174  and  _175
REMARK   78  A    between atoms: _181  and  _183
REMARK   79  A    between atoms: _183  and  _184
REMARK   80  A    between atoms: _183  and  _186
REMARK   81  A    between atoms: _186  and  _187
REMARK   82  A    between atoms: _190  and  _192
REMARK   83  A    between atoms: _192  and  _193
REMARK   84  A    between atoms: _192  and  _195
REMARK   85  A    between atoms: _198  and  _200
REMARK   86  A    between atoms: _200  and  _201
REMARK   87  A    between atoms: _200  and  _203
REMARK   88  A    between atoms: _203  and  _204
REMARK   89  A    between atoms: _207  and  _209
REMARK   90  A    between atoms: _209  and  _210
REMARK   91  A    between atoms: _209  and  _212
REMARK   92  A    between atoms: _212  and  _213
REMARK   93  A    between atoms: _217  and  _218
REMARK   94  A    between atoms: _223  and  _225
REMARK   95  A    between atoms: _225  and  _226
REMARK   96  A    between atoms: _225  and  _228
REMARK   97  A    between atoms: _231  and  _233
REMARK   98  A    between atoms: _233  and  _234
REMARK   99  A    between atoms: _233  and  _236
REMARK  100  A    between atoms: _236  and  _237
REMARK  101  A    between atoms: _242  and  _244
REMARK  102  A    between atoms: _244  and  _245
REMARK  103  A    between atoms: _244  and  _247
REMARK  104  A    between atoms: _247  and  _248
REMARK  105  A    between atoms: _251  and  _253
REMARK  106  A    between atoms: _253  and  _254
REMARK  107  A    between atoms: _253  and  _256
REMARK  108  A    between atoms: _256  and  _257
REMARK  109  A    between atoms: _260  and  _262
REMARK  110  A    between atoms: _262  and  _263
REMARK  111  A    between atoms: _265  and  _267
REMARK  112  A    between atoms: _267  and  _268
REMARK  113  A    between atoms: _267  and  _270
REMARK  114  A    between atoms: _270  and  _271
REMARK  115  A    between atoms: _271  and  _272
REMARK  116  A    between atoms: _272  and  _273
REMARK  117  A    between atoms: _282  and  _284
REMARK  118  A    between atoms: _284  and  _285
REMARK  119  A    between atoms: _284  and  _287
REMARK  120  A    between atoms: _287  and  _288
REMARK  121  A    between atoms: _293  and  _295
REMARK  122  A    between atoms: _295  and  _296
REMARK  123  A    between atoms: _295  and  _298
REMARK  124  A    between atoms: _298  and  _299
REMARK  125  A    between atoms: _299  and  _300
REMARK  126  A    between atoms: _300  and  _301
REMARK  127  A    between atoms: _310  and  _312
REMARK  128  A    between atoms: _312  and  _313
REMARK  129  A    between atoms: _312  and  _315
REMARK  130  A    between atoms: _315  and  _316
REMARK  131  A    between atoms: _319  and  _321
REMARK  132  A    between atoms: _321  and  _322
REMARK  133  A    between atoms: _321  and  _324
REMARK  134  A    between atoms: _324  and  _325
REMARK  135  A    between atoms: _328  and  _330
REMARK  136  A    between atoms: _330  and  _331
REMARK  137  A    between atoms: _330  and  _333
REMARK  138  A    between atoms: _333  and  _334
REMARK  139  A    between atoms: _337  and  _339
REMARK  140  A    between atoms: _339  and  _340
REMARK  141  A    between atoms: _339  and  _342
REMARK  142  A    between atoms: _342  and  _343
REMARK  143  A    between atoms: _346  and  _348
REMARK  144  A    between atoms: _348  and  _349
REMARK  145  A    between atoms: _348  and  _351
REMARK  146  A    between atoms: _351  and  _352
REMARK  147  A    between atoms: _355  and  _357
REMARK  148  A    between atoms: _357  and  _358
REMARK  149  A    between atoms: _360  and  _362
REMARK  150  A    between atoms: _362  and  _363
REMARK  151  A    between atoms: _366  and  _368
REMARK  152  A    between atoms: _368  and  _369
REMARK  153  A    between atoms: _368  and  _371
REMARK  154  A    between atoms: _371  and  _372
REMARK  155  A    between atoms: _375  and  _377
REMARK  156  A    between atoms: _377  and  _378
REMARK  157  A    between atoms: _377  and  _380
REMARK  158  A    between atoms: _380  and  _381
REMARK  159  A    between atoms: _384  and  _386
REMARK  160  A    between atoms: _386  and  _387
REMARK  161  A    between atoms: _386  and  _389
REMARK  162  A    between atoms: _389  and  _390
REMARK  163  A    between atoms: _393  and  _395
REMARK  164  A    between atoms: _395  and  _396
REMARK  165  A    between atoms: _395  and  _398
REMARK  166  A    between atoms: _401  and  _403
REMARK  167  A    between atoms: _403  and  _404
REMARK  168  A    between atoms: _403  and  _406
REMARK  169  A    between atoms: _406  and  _407
REMARK  170  A    between atoms: _410  and  _412
REMARK  171  A    between atoms: _412  and  _413
REMARK  172  A    between atoms: _412  and  _415
REMARK  173  A    between atoms: _415  and  _416
REMARK  174  A    between atoms: _416  and  _417
REMARK  175  A    between atoms: _417  and  _418
REMARK  176  A    between atoms: _418  and  _419
REMARK  177  A    between atoms: _423  and  _425
REMARK  178  A    between atoms: _425  and  _426
REMARK  179  A    between atoms: _425  and  _428
REMARK  180  A    between atoms: _428  and  _429
REMARK  181  A    between atoms: _429  and  _430
REMARK  182  A    between atoms: _432  and  _434
REMARK  183  A    between atoms: _434  and  _435
REMARK  184  A    between atoms: _434  and  _437
REMARK  185  A    between atoms: _437  and  _438
REMARK  186  A    between atoms: _441  and  _443
REMARK  187  A    between atoms: _443  and  _444
REMARK  188  A    between atoms: _446  and  _448
REMARK  189  A    between atoms: _448  and  _449
REMARK  190  A    between atoms: _451  and  _453
REMARK  191  A    between atoms: _453  and  _454
REMARK  192  A    between atoms: _453  and  _456
REMARK  193  A    between atoms: _456  and  _457
REMARK  194  A    between atoms: _460  and  _462
REMARK  195  A    between atoms: _462  and  _463
REMARK  196  A    between atoms: _465  and  _467
REMARK  197  A    between atoms: _467  and  _468
REMARK  198  A    between atoms: _470  and  _472
REMARK  199  A    between atoms: _472  and  _473
REMARK  200  A    between atoms: _472  and  _475
REMARK  201  A    between atoms: _475  and  _476
REMARK  202  A    between atoms: _482  and  _484
REMARK  203  A    between atoms: _484  and  _485
REMARK  204  A    between atoms: _484  and  _487
REMARK  205  A    between atoms: _487  and  _488
REMARK  206  A    between atoms: _491  and  _493
REMARK  207  A    between atoms: _493  and  _494
REMARK  208  A    between atoms: _493  and  _496
REMARK  209  A    between atoms: _499  and  _501
REMARK  210  A    between atoms: _501  and  _502
REMARK  211  A    between atoms: _501  and  _504
REMARK  212  A    between atoms: _504  and  _505
REMARK  213  A    between atoms: _508  and  _510
REMARK  214  A    between atoms: _510  and  _511
REMARK  215  A    between atoms: _510  and  _513
REMARK  216  A    between atoms: _513  and  _514
REMARK  217  A    between atoms: _518  and  _519
REMARK  218  A    between atoms: _524  and  _526
REMARK  219  A    between atoms: _526  and  _527
REMARK  220  A    between atoms: _526  and  _529
REMARK  221  A    between atoms: _532  and  _534
REMARK  222  A    between atoms: _534  and  _535
REMARK  223  A    between atoms: _534  and  _537
REMARK  224  A    between atoms: _537  and  _538
REMARK  225  A    between atoms: _543  and  _545
REMARK  226  A    between atoms: _545  and  _546
REMARK  227  A    between atoms: _545  and  _548
REMARK  228  A    between atoms: _548  and  _549
REMARK  229  A    between atoms: _552  and  _554
REMARK  230  A    between atoms: _554  and  _555
REMARK  231  A    between atoms: _554  and  _557
REMARK  232  A    between atoms: _557  and  _558
REMARK  233  A    between atoms: _561  and  _563
REMARK  234  A    between atoms: _563  and  _564
REMARK  235  A    between atoms: _566  and  _568
REMARK  236  A    between atoms: _568  and  _569
REMARK  237  A    between atoms: _568  and  _571
REMARK  238  A    between atoms: _571  and  _572
REMARK  239  A    between atoms: _572  and  _573
REMARK  240  A    between atoms: _573  and  _574
REMARK  241  A    between atoms: _583  and  _585
REMARK  242  A    between atoms: _585  and  _586
REMARK  243  A    between atoms: _585  and  _588
REMARK  244  A    between atoms: _588  and  _589
REMARK                            x       y       z     vdW  Elec       q    Type
REMARK                         _______ _______ _______ _____ _____    ______ ____
ROOT
ATOM      1  CA  LEU A   1       8.179  30.859  16.420  0.00  0.00    +0.133 C 
ENDROOT
BRANCH   1   2
ATOM      2  N   LEU A   1       8.992  32.010  16.071  0.00  0.00    -0.239 NA
ATOM      3  H   LEU A   1       9.703  31.922  15.317  0.00  0.00    +0.142 HD
ENDBRANCH   1   2
BRANCH   1   4
ATOM      4  C   LEU A   1       9.042  29.967  17.299  0.00  0.00    +0.224 C 
ATOM      5  O   LEU A   1      10.226  29.784  17.029  0.00  0.00    -0.287 OA
ENDBRANCH   1   4
BRANCH   1   6
ATOM      6  CB  LEU A   1       7.760  30.100  15.157  0.00  0.00    +0.025 C 
BRANCH   6   7
ATOM      7  CG  LEU A   1       7.088  30.975  14.093  0.00  0.00    +0.002 C 
ATOM      8  CD2 LEU A   1       5.836  31.611  14.668  0.00  0.00    +0.000 C 
ATOM      9  CD1 LEU A   1       6.757  30.133  12.872  0.00  0.00    +0.000 C 
ENDBRANCH   6   7
ENDBRANCH   1   6
TORSDOF 4
REMARK  Name = ../refined-set-2016/1d4j/1d4j_pocket.pdb
REMARK  244 active torsions:
REMARK  status: ('A' for Active; 'I' for Inactive)
REMARK    1  A    between atoms: _1  and  _3
REMARK    2  A    between atoms: _3  and  _4
REMARK    3  A    between atoms: _3  and  _6
REMARK    4  A    between atoms: _6  and  _7
REMARK    5  A    between atoms: _7  and  _8
REMARK    6  A    between atoms: _8  and  _9
REMARK    7  A    between atoms: _18  and  _20
REMARK    8  A    between atoms: _20  and  _21
REMARK    9  A    between atoms: _20  and  _23
REMARK   10  A    between atoms: _23  and  _24
REMARK   11  A    between atoms: _27  and  _29
REMARK   12  A    between atoms: _29  and  _30
REMARK   13  A    between atoms: _29  and  _32
REMARK   14  A    between atoms: _32  and  _33
REMARK   15  A    between atoms: _36  and  _38
REMARK   16  A    between atoms: _38  and  _39
REMARK   17  A    between atoms: _38  and  _41
REMARK   18  A    between atoms: _41  and  _42
REMARK   19  A    between atoms: _45  and  _47
REMARK   20  A    between atoms: _47  and  _48
REMARK   21  A    between atoms: _47  and  _50
REMARK   22  A    between atoms: _50  and  _51
REMARK   23  A    between atoms: _54  and  _56
REMARK   24  A    between atoms: _56  and  _57
REMARK   25  A    between atoms: _56  and  _59
REMARK   26  A    between atoms: _59  and  _60
REMARK   27  A    between atoms: _63  and  _65
REMARK   28  A    between atoms: _65  and  _66
REMARK   29  A    between atoms: _68  and  _70
REMARK   30  A    between atoms: _70  and  _71
REMARK   31  A    between atoms: _74  and  _76
REMARK   32  A    between atoms: _76  and  _77
REMARK   33  A    between atoms: _76  and  _79
REMARK   34  A    between atoms: _79  and  _80
REMARK   35  A    between atoms: _83  and  _85
REMARK   36  A    between atoms: _85  and  _86
REMARK   37  A    between atoms: _85  and  _88
REMARK   38  A    between atoms: _88  and  _89
REMARK   39  A    between atoms: _92  and  _94
REMARK   40  A    between atoms: _94  and  _95
REMARK   41  A    between atoms: _94  and  _97
REMARK   42  A    between atoms: _97  and  _98
REMARK   43  A    between atoms: _101  and  _103
REMARK   44  A    between atoms: _103  and  _104
REMARK   45  A    between atoms: _103  and  _106
REMARK   46  A    between atoms: _109  and  _111
REMARK   47  A    between atoms: _111  and  _112
REMARK   48  A    between atoms: _111  and  _114
REMARK   49  A    between atoms: _114  and  _115
REMARK   50  A    between atoms: _115  and  _116
REMARK   51  A    between atoms: _116  and  _117
REMARK   52  A    between atoms: _117  and  _118
REMARK   53  A    between atoms: _122  and  _124
REMARK   54  A    between atoms: _124  and  _125
REMARK   55  A    between atoms: _124  and  _127
REMARK   56  A    between atoms: _127  and  _128
REMARK   57  A    between atoms: _128  and  _129
REMARK   58  A    between atoms: _131  and  _133
REMARK   59  A    between atoms: _133  and  _134
REMARK   60  A    between atoms: _133  and  _136
REMARK   61  A    between atoms: _136  and  _137
REMARK   62  A    between atoms: _140  and  _142
REMARK   63  A    between atoms: _142  and  _143
REMARK   64  A    between atoms: _145  and  _147
REMARK   65  A    between atoms: _147  and  _148
REMARK   66  A    between atoms: _150  and  _152
REMARK   67  A    between atoms: _152  and  _153
REMARK   68  A    between atoms: _152  and  _155
REMARK   69  A    between atoms: _155  and  _156
REMARK   70  A    between atoms: _159  and  _161
REMARK   71  A    between atoms: _161  and  _162
REMARK   72  A    between atoms: _164  and  _166
REMARK   73  A    between atoms: _166  and  _167
REMARK   74  A    between atoms: _169  and  _171
REMARK   75  A    between atoms: _171  and  _172
REMARK   76  A    between atoms: _171  and  _174
REMARK   77  A    between atoms: _174  and  _175
REMARK   78  A    between atoms: _181  and  _183
REMARK   79  A    between atoms: _183  and  _184
REMARK   80  A    between atoms: _183  and  _186
REMARK   81  A    between atoms: _186  and  _187
REMARK   82  A    between atoms: _190  and  _192
REMARK   83  A    between atoms: _192  and  _193
REMARK   84  A    between atoms: _192  and  _195
REMARK   85  A    between atoms: _198  and  _200
REMARK   86  A    between atoms: _200  and  _201
REMARK   87  A    between atoms: _200  and  _203
REMARK   88  A    between atoms: _203  and  _204
REMARK   89  A    between atoms: _207  and  _209
REMARK   90  A    between atoms: _209  and  _210
REMARK   91  A    between atoms: _209  and  _212
REMARK   92  A    between atoms: _212  and  _213
REMARK   93  A    between atoms: _217  and  _218
REMARK   94  A    between atoms: _223  and  _225
REMARK   95  A    between atoms: _225  and  _226
REMARK   96  A    between atoms: _225  and  _228
REMARK   97  A    between atoms: _231  and  _233
REMARK   98  A    between atoms: _233  and  _234
REMARK   99  A    between atoms: _233  and  _236
REMARK  100  A    between atoms: _236  and  _237
REMARK  101  A    between atoms: _242  and  _244
REMARK  102  A    between atoms: _244  and  _245
REMARK  103  A    between atoms: _244  and  _247
REMARK  104  A    between atoms: _247  and  _248
REMARK  105  A    between atoms: _251  and  _253
REMARK  106  A    between atoms: _253  and  _254
REMARK  107  A    between atoms: _253  and  _256
REMARK  108  A    between atoms: _256  and  _257
REMARK  109  A    between atoms: _260  and  _262
REMARK  110  A    between atoms: _262  and  _263
REMARK  111  A    between atoms: _265  and  _267
REMARK  112  A    between atoms: _267  and  _268
REMARK  113  A    between atoms: _267  and  _270
REMARK  114  A    between atoms: _270  and  _271
REMARK  115  A    between atoms: _271  and  _272
REMARK  116  A    between atoms: _272  and  _273
REMARK  117  A    between atoms: _282  and  _284
REMARK  118  A    between atoms: _284  and  _285
REMARK  119  A    between atoms: _284  and  _287
REMARK  120  A    between atoms: _287  and  _288
REMARK  121  A    between atoms: _293  and  _295
REMARK  122  A    between atoms: _295  and  _296
REMARK  123  A    between atoms: _295  and  _298
REMARK  124  A    between atoms: _298  and  _299
REMARK  125  A    between atoms: _299  and  _300
REMARK  126  A    between atoms: _300  and  _301
REMARK  127  A    between atoms: _310  and  _312
REMARK  128  A    between atoms: _312  and  _313
REMARK  129  A    between atoms: _312  and  _315
REMARK  130  A    between atoms: _315  and  _316
REMARK  131  A    between atoms: _319  and  _321
REMARK  132  A    between atoms: _321  and  _322
REMARK  133  A    between atoms: _321  and  _324
REMARK  134  A    between atoms: _324  and  _325
REMARK  135  A    between atoms: _328  and  _330
REMARK  136  A    between atoms: _330  and  _331
REMARK  137  A    between atoms: _330  and  _333
REMARK  138  A    between atoms: _333  and  _334
REMARK  139  A    between atoms: _337  and  _339
REMARK  140  A    between atoms: _339  and  _340
REMARK  141  A    between atoms: _339  and  _342
REMARK  142  A    between atoms: _342  and  _343
REMARK  143  A    between atoms: _346  and  _348
REMARK  144  A    between atoms: _348  and  _349
REMARK  145  A    between atoms: _348  and  _351
REMARK  146  A    between atoms: _351  and  _352
REMARK  147  A    between atoms: _355  and  _357
REMARK  148  A    between atoms: _357  and  _358
REMARK  149  A    between atoms: _360  and  _362
REMARK  150  A    between atoms: _362  and  _363
REMARK  151  A    between atoms: _366  and  _368
REMARK  152  A    between atoms: _368  and  _369
REMARK  153  A    between atoms: _368  and  _371
REMARK  154  A    between atoms: _371  and  _372
REMARK  155  A    between atoms: _375  and  _377
REMARK  156  A    between atoms: _377  and  _378
REMARK  157  A    between atoms: _377  and  _380
REMARK  158  A    between atoms: _380  and  _381
REMARK  159  A    between atoms: _384  and  _386
REMARK  160  A    between atoms: _386  and  _387
REMARK  161  A    between atoms: _386  and  _389
REMARK  162  A    between atoms: _389  and  _390
REMARK  163  A    between atoms: _393  and  _395
REMARK  164  A    between atoms: _395  and  _396
REMARK  165  A    between atoms: _395  and  _398
REMARK  166  A    between atoms: _401  and  _403
REMARK  167  A    between atoms: _403  and  _404
REMARK  168  A    between atoms: _403  and  _406
REMARK  169  A    between atoms: _406  and  _407
REMARK  170  A    between atoms: _410  and  _412
REMARK  171  A    between atoms: _412  and  _413
REMARK  172  A    between atoms: _412  and  _415
REMARK  173  A    between atoms: _415  and  _416
REMARK  174  A    between atoms: _416  and  _417
REMARK  175  A    between atoms: _417  and  _418
REMARK  176  A    between atoms: _418  and  _419
REMARK  177  A    between atoms: _423  and  _425
REMARK  178  A    between atoms: _425  and  _426
REMARK  179  A    between atoms: _425  and  _428
REMARK  180  A    between atoms: _428  and  _429
REMARK  181  A    between atoms: _429  and  _430
REMARK  182  A    between atoms: _432  and  _434
REMARK  183  A    between atoms: _434  and  _435
REMARK  184  A    between atoms: _434  and  _437
REMARK  185  A    between atoms: _437  and  _438
REMARK  186  A    between atoms: _441  and  _443
REMARK  187  A    between atoms: _443  and  _444
REMARK  188  A    between atoms: _446  and  _448
REMARK  189  A    between atoms: _448  and  _449
REMARK  190  A    between atoms: _451  and  _453
REMARK  191  A    between atoms: _453  and  _454
REMARK  192  A    between atoms: _453  and  _456
REMARK  193  A    between atoms: _456  and  _457
REMARK  194  A    between atoms: _460  and  _462
REMARK  195  A    between atoms: _462  and  _463
REMARK  196  A    between atoms: _465  and  _467
REMARK  197  A    between atoms: _467  and  _468
REMARK  198  A    between atoms: _470  and  _472
REMARK  199  A    between atoms: _472  and  _473
REMARK  200  A    between atoms: _472  and  _475
REMARK  201  A    between atoms: _475  and  _476
REMARK  202  A    between atoms: _482  and  _484
REMARK  203  A    between atoms: _484  and  _485
REMARK  204  A    between atoms: _484  and  _487
REMARK  205  A    between atoms: _487  and  _488
REMARK  206  A    between atoms: _491  and  _493
REMARK  207  A    between atoms: _493  and  _494
REMARK  208  A    between atoms: _493  and  _496
REMARK  209  A    between atoms: _499  and  _501
REMARK  210  A    between atoms: _501  and  _502
REMARK  211  A    between atoms: _501  and  _504
REMARK  212  A    between atoms: _504  and  _505
REMARK  213  A    between atoms: _508  and  _510
REMARK  214  A    between atoms: _510  and  _511
REMARK  215  A    between atoms: _510  and  _513
REMARK  216  A    between atoms: _513  and  _514
REMARK  217  A    between atoms: _518  and  _519
REMARK  218  A    between atoms: _524  and  _526
REMARK  219  A    between atoms: _526  and  _527
REMARK  220  A    between atoms: _526  and  _529
REMARK  221  A    between atoms: _532  and  _534
REMARK  222  A    between atoms: _534  and  _535
REMARK  223  A    between atoms: _534  and  _537
REMARK  224  A    between atoms: _537  and  _538
REMARK  225  A    between atoms: _543  and  _545
REMARK  226  A    between atoms: _545  and  _546
REMARK  227  A    between atoms: _545  and  _548
REMARK  228  A    between atoms: _548  and  _549
REMARK  229  A    between atoms: _552  and  _554
REMARK  230  A    between atoms: _554  and  _555
REMARK  231  A    between atoms: _554  and  _557
REMARK  232  A    between atoms: _557  and  _558
REMARK  233  A    between atoms: _561  and  _563
REMARK  234  A    between atoms: _563  and  _564
REMARK  235  A    between atoms: _566  and  _568
REMARK  236  A    between atoms: _568  and  _569
REMARK  237  A    between atoms: _568  and  _571
REMARK  238  A    between atoms: _571  and  _572
REMARK  239  A    between atoms: _572  and  _573
REMARK  240  A    between atoms: _573  and  _574
REMARK  241  A    between atoms: _583  and  _585
REMARK  242  A    between atoms: _585  and  _586
REMARK  243  A    between atoms: _585  and  _588
REMARK  244  A    between atoms: _588  and  _589
REMARK                            x       y       z     vdW  Elec       q    Type
REMARK                         _______ _______ _______ _____ _____    ______ ____
ROOT
ATOM      1  C   ILE A   5      15.975  30.074  11.822  0.00  0.00    +0.241 C 
ATOM      2  O   ILE A   5      15.018  30.557  12.421  0.00  0.00    -0.273 OA
ATOM      3  N   ILE A   6      16.802  30.797  11.076  0.00  0.00    -0.297 N 
ATOM      4  H   ILE A   6      17.631  30.342  10.643  0.00  0.00    +0.150 HD
ENDROOT
BRANCH   3   5
ATOM      5  CA  ILE A   6      16.566  32.214  10.855  0.00  0.00    +0.149 C 
BRANCH   5   6
ATOM      6  C   ILE A   6      15.917  32.249   9.474  0.00  0.00    +0.241 C 
ATOM      7  N   GLY A   7      14.650  32.651   9.434  0.00  0.00    -0.295 N 
ATOM      8  H   GLY A   7      14.177  32.941  10.314  0.00  0.00    +0.150 HD
ATOM      9  O   ILE A   6      16.552  31.901   8.474  0.00  0.00    -0.273 OA
BRANCH   7  10
ATOM     10  CA  GLY A   7      13.916  32.692   8.182  0.00  0.00    +0.176 C 
BRANCH  10  11
ATOM     11  C   GLY A   7      13.886  34.042   7.501  0.00  0.00    +0.243 C 
ATOM     12  O   GLY A   7      14.459  35.017   7.991  0.00  0.00    -0.273 OA
ATOM     13  N   ARG A   8      13.197  34.100   6.370  0.00  0.00    -0.297 N 
ATOM     14  H   ARG A   8      12.701  33.250   6.034  0.00  0.00    +0.150 HD
BRANCH  13  15
ATOM     15  CA  ARG A   8      13.118  35.325   5.587  0.00  0.00    +0.149 C 
BRANCH  15  16
ATOM     16  C   ARG A   8      12.643  36.555   6.338  0.00  0.00    +0.241 C 
ATOM     17  N   ASN A   9      11.712  36.377   7.272  0.00  0.00    -0.298 N 
ATOM     18  H   ASN A   9      11.361  35.420   7.476  0.00  0.00    +0.150 HD
ATOM     19  O   ARG A   8      13.121  37.661   6.069  0.00  0.00    -0.273 OA
BRANCH  17  20
ATOM     20  CA  ASN A   9      11.179  37.523   8.015  0.00  0.00    +0.146 C 
BRANCH  20  21
ATOM     21  C   ASN A   9      12.266  38.339   8.704  0.00  0.00    +0.227 C 
ATOM     22  O   ASN A   9      12.122  39.552   8.871  0.00  0.00    -0.286 OA
ENDBRANCH  20  21
BRANCH  20  23
ATOM     23  CB  ASN A   9      10.109  37.073   9.030  0.00  0.00    +0.112 C 
BRANCH  23  24
ATOM     24  CG  ASN A   9      10.696  36.385  10.253  0.00  0.00    +0.222 C 
ATOM     25  ND2 ASN A   9      10.336  36.880  11.441  0.00  0.00    -0.329 N 
ATOM     26 HD21 ASN A   9      10.698  36.449  12.315  0.00  0.00    +0.145 HD
ATOM     27 HD22 ASN A   9       9.694  37.696  11.491  0.00  0.00    +0.145 HD
ATOM     28  OD1 ASN A   9      11.453  35.421  10.138  0.00  0.00    -0.275 OA
ENDBRANCH  23  24
ENDBRANCH  20  23
ENDBRANCH  17  20
ENDBRANCH  15  16
BRANCH  15  29
ATOM     29  CB  ARG A   8      12.229  35.111   4.355  0.00  0.00    +0.033 C 
BRANCH  29  30
ATOM     30  CG  ARG A   8      12.810  34.105   3.359  0.00  0.00    +0.045 C 
BRANCH  30  31
ATOM     31  CD  ARG A   8      12.029  34.074   2.044  0.00  0.00    +0.174 C 
BRANCH  31  32
ATOM     32  NE  ARG A   8      10.631  33.707   2.241  0.00  0.00    -0.265 N 
ATOM     33  HE  ARG A   8      10.406  32.697   2.346  0.00  0.00    +0.259 HD
ATOM     34  CZ  ARG A   8       9.625  34.575   2.296  0.00  0.00    +0.342 C 
ATOM     35  NH2 ARG A   8       8.387  34.141   2.494  0.00  0.00    -0.292 N 
ATOM     36 HH21 ARG A   8       8.204  33.123   2.606  0.00  0.00    +0.255 HD
ATOM     37 HH22 ARG A   8       7.599  34.818   2.537  0.00  0.00    +0.255 HD
ATOM     38  NH1 ARG A   8       9.852  35.876   2.164  0.00  0.00    -0.292 N 
ATOM     39 HH11 ARG A   8       9.060  36.549   2.208  0.00  0.00    +0.255 HD
ATOM     40 HH12 ARG A   8      10.821  36.222   2.016  0.00  0.00    +0.255 HD
ENDBRANCH  31  32
ENDBRANCH  30  31
ENDBRANCH  29  30
ENDBRANCH  15  29
ENDBRANCH  13  15
ENDBRANCH  10  11
ENDBRANCH   7  10
ENDBRANCH   5   6
BRANCH   5  41
ATOM     41  CB  ILE A   6      17.870  33.037  10.820  0.00  0.00    +0.027 C 
ATOM     42  CG2 ILE A   6      17.549  34.490  10.466  0.00  0.00    +0.002 C 
BRANCH  41  43
ATOM     43  CG1 ILE A   6      18.571  32.970  12.181  0.00  0.00    +0.002 C 
ATOM     44  CD1 ILE A   6      17.735  33.504  13.327  0.00  0.00    +0.000 C 
ENDBRANCH  41  43
ENDBRANCH   5  41
ENDBRANCH   3   5
BRANCH   1  45
ATOM     45  CA  ILE A   5      16.267  28.583  11.908  0.00  0.00    +0.149 C 
BRANCH  45  47
ATOM     46  C   ASN A   4      17.452  27.461  13.712  0.00  0.00    +0.241 C 
ATOM     47  N   ILE A   5      16.366  28.078  13.267  0.00  0.00    -0.297 N 
ATOM     48  H   ILE A   5      15.559  28.205  13.911  0.00  0.00    +0.150 HD
ATOM     49  O   ASN A   4      18.473  27.316  13.044  0.00  0.00    -0.273 OA
BRANCH  46  50
ATOM     50  CA  ASN A   4      17.374  26.936  15.134  0.00  0.00    +0.158 C 
BRANCH  50  52
ATOM     51  C   VAL A   3      17.086  24.587  14.594  0.00  0.00    +0.241 C 
ATOM     52  N   ASN A   4      17.841  25.552  15.117  0.00  0.00    -0.297 N 
ATOM     53  H   ASN A   4      18.772  25.318  15.517  0.00  0.00    +0.150 HD
ATOM     54  O   VAL A   3      15.970  24.799  14.123  0.00  0.00    -0.273 OA
BRANCH  51  55
ATOM     55  CA  VAL A   3      17.659  23.171  14.606  0.00  0.00    +0.149 C 
BRANCH  55  58
ATOM     56  C   PRO A   2      16.757  21.008  15.247  0.00  0.00    +0.241 C 
ATOM     57  O   PRO A   2      17.798  20.697  15.824  0.00  0.00    -0.273 OA
ATOM     58  N   VAL A   3      16.592  22.180  14.643  0.00  0.00    -0.297 N 
ATOM     59  H   VAL A   3      15.682  22.394  14.187  0.00  0.00    +0.150 HD
BRANCH  56  63
ATOM     60  C   THR A   1      13.778  21.552  15.947  0.00  0.00    +0.244 C 
ATOM     61  O   THR A   1      14.349  21.756  17.018  0.00  0.00    -0.273 OA
ATOM     62  N   PRO A   2      14.294  20.740  15.011  0.00  0.00    -0.272 N 
ATOM     63  CA  PRO A   2      15.575  20.046  15.189  0.00  0.00    +0.152 C 
ATOM     64  CB  PRO A   2      15.657  19.138  13.956  0.00  0.00    +0.031 C 
ATOM     65  CG  PRO A   2      14.236  18.935  13.568  0.00  0.00    +0.024 C 
ATOM     66  CD  PRO A   2      13.638  20.305  13.767  0.00  0.00    +0.094 C 
BRANCH  60  67
ATOM     67  CA  THR A   1      12.433  22.216  15.642  0.00  0.00    +0.172 C 
BRANCH  67  68
ATOM     68  N   THR A   1      11.658  22.263  16.879  0.00  0.00    -0.236 NA
ATOM     69  H   THR A   1      11.673  23.122  17.465  0.00  0.00    +0.142 HD
ENDBRANCH  67  68
BRANCH  67  70
ATOM     70  CB  THR A   1      12.693  23.625  15.064  0.00  0.00    +0.135 C 
ATOM     71  CG2 THR A   1      13.377  24.513  16.097  0.00  0.00    +0.034 C 
BRANCH  70  72
ATOM     72  OG1 THR A   1      13.530  23.520  13.904  0.00  0.00    -0.383 OA
ATOM     73  HG1 THR A   1      14.391  23.103  14.157  0.00  0.00    +0.210 HD
ENDBRANCH  70  72
ENDBRANCH  67  70
ENDBRANCH  60  67
ENDBRANCH  56  63
ENDBRANCH  55  58
BRANCH  55  74
ATOM     74  CB  VAL A   3      18.525  22.961  13.348  0.00  0.00    +0.027 C 
ATOM     75  CG2 VAL A   3      19.636  23.984  13.291  0.00  0.00    +0.002 C 
ATOM     76  CG1 VAL A   3      17.659  23.049  12.115  0.00  0.00    +0.002 C 
ENDBRANCH  55  74
ENDBRANCH  51  55
ENDBRANCH  50  52
BRANCH  50  77
ATOM     77  CB  ASN A   4      18.225  27.797  16.071  0.00  0.00    +0.114 C 
BRANCH  77  78
ATOM     78  CG  ASN A   4      18.046  27.412  17.532  0.00  0.00    +0.222 C 
ATOM     79  ND2 ASN A   4      19.154  27.259  18.251  0.00  0.00    -0.329 N 
ATOM     80 HD21 ASN A   4      19.090  26.999  19.256  0.00  0.00    +0.145 HD
ATOM     81 HD22 ASN A   4      20.085  27.399  17.808  0.00  0.00    +0.145 HD
ATOM     82  OD1 ASN A   4      16.919  27.258  18.006  0.00  0.00    -0.275 OA
ENDBRANCH  77  78
ENDBRANCH  50  77
ENDBRANCH  46  50
ENDBRANCH  45  47
BRANCH  45  83
ATOM     83  CB  ILE A   5      15.124  27.859  11.164  0.00  0.00    +0.027 C 
ATOM     84  CG2 ILE A   5      14.919  28.464   9.777  0.00  0.00    +0.002 C 
BRANCH  83  85
ATOM     85  CG1 ILE A   5      15.419  26.363  11.082  0.00  0.00    +0.002 C 
ATOM     86  CD1 ILE A   5      14.180  25.548  10.830  0.00  0.00    +0.000 C 
ENDBRANCH  83  85
ENDBRANCH  45  83
ENDBRANCH   1  45
TORSDOF 32
REMARK  Name = ../refined-set-2016/1d4j/1d4j_pocket.pdb
REMARK  244 active torsions:
REMARK  status: ('A' for Active; 'I' for Inactive)
REMARK    1  A    between atoms: _1  and  _3
REMARK    2  A    between atoms: _3  and  _4
REMARK    3  A    between atoms: _3  and  _6
REMARK    4  A    between atoms: _6  and  _7
REMARK    5  A    between atoms: _7  and  _8
REMARK    6  A    between atoms: _8  and  _9
REMARK    7  A    between atoms: _18  and  _20
REMARK    8  A    between atoms: _20  and  _21
REMARK    9  A    between atoms: _20  and  _23
REMARK   10  A    between atoms: _23  and  _24
REMARK   11  A    between atoms: _27  and  _29
REMARK   12  A    between atoms: _29  and  _30
REMARK   13  A    between atoms: _29  and  _32
REMARK   14  A    between atoms: _32  and  _33
REMARK   15  A    between atoms: _36  and  _38
REMARK   16  A    between atoms: _38  and  _39
REMARK   17  A    between atoms: _38  and  _41
REMARK   18  A    between atoms: _41  and  _42
REMARK   19  A    between atoms: _45  and  _47
REMARK   20  A    between atoms: _47  and  _48
REMARK   21  A    between atoms: _47  and  _50
REMARK   22  A    between atoms: _50  and  _51
REMARK   23  A    between atoms: _54  and  _56
REMARK   24  A    between atoms: _56  and  _57
REMARK   25  A    between atoms: _56  and  _59
REMARK   26  A    between atoms: _59  and  _60
REMARK   27  A    between atoms: _63  and  _65
REMARK   28  A    between atoms: _65  and  _66
REMARK   29  A    between atoms: _68  and  _70
REMARK   30  A    between atoms: _70  and  _71
REMARK   31  A    between atoms: _74  and  _76
REMARK   32  A    between atoms: _76  and  _77
REMARK   33  A    between atoms: _76  and  _79
REMARK   34  A    between atoms: _79  and  _80
REMARK   35  A    between atoms: _83  and  _85
REMARK   36  A    between atoms: _85  and  _86
REMARK   37  A    between atoms: _85  and  _88
REMARK   38  A    between atoms: _88  and  _89
REMARK   39  A    between atoms: _92  and  _94
REMARK   40  A    between atoms: _94  and  _95
REMARK   41  A    between atoms: _94  and  _97
REMARK   42  A    between atoms: _97  and  _98
REMARK   43  A    between atoms: _101  and  _103
REMARK   44  A    between atoms: _103  and  _104
REMARK   45  A    between atoms: _103  and  _106
REMARK   46  A    between atoms: _109  and  _111
REMARK   47  A    between atoms: _111  and  _112
REMARK   48  A    between atoms: _111  and  _114
REMARK   49  A    between atoms: _114  and  _115
REMARK   50  A    between atoms: _115  and  _116
REMARK   51  A    between atoms: _116  and  _117
REMARK   52  A    between atoms: _117  and  _118
REMARK   53  A    between atoms: _122  and  _124
REMARK   54  A    between atoms: _124  and  _125
REMARK   55  A    between atoms: _124  and  _127
REMARK   56  A    between atoms: _127  and  _128
REMARK   57  A    between atoms: _128  and  _129
REMARK   58  A    between atoms: _131  and  _133
REMARK   59  A    between atoms: _133  and  _134
REMARK   60  A    between atoms: _133  and  _136
REMARK   61  A    between atoms: _136  and  _137
REMARK   62  A    between atoms: _140  and  _142
REMARK   63  A    between atoms: _142  and  _143
REMARK   64  A    between atoms: _145  and  _147
REMARK   65  A    between atoms: _147  and  _148
REMARK   66  A    between atoms: _150  and  _152
REMARK   67  A    between atoms: _152  and  _153
REMARK   68  A    between atoms: _152  and  _155
REMARK   69  A    between atoms: _155  and  _156
REMARK   70  A    between atoms: _159  and  _161
REMARK   71  A    between atoms: _161  and  _162
REMARK   72  A    between atoms: _164  and  _166
REMARK   73  A    between atoms: _166  and  _167
REMARK   74  A    between atoms: _169  and  _171
REMARK   75  A    between atoms: _171  and  _172
REMARK   76  A    between atoms: _171  and  _174
REMARK   77  A    between atoms: _174  and  _175
REMARK   78  A    between atoms: _181  and  _183
REMARK   79  A    between atoms: _183  and  _184
REMARK   80  A    between atoms: _183  and  _186
REMARK   81  A    between atoms: _186  and  _187
REMARK   82  A    between atoms: _190  and  _192
REMARK   83  A    between atoms: _192  and  _193
REMARK   84  A    between atoms: _192  and  _195
REMARK   85  A    between atoms: _198  and  _200
REMARK   86  A    between atoms: _200  and  _201
REMARK   87  A    between atoms: _200  and  _203
REMARK   88  A    between atoms: _203  and  _204
REMARK   89  A    between atoms: _207  and  _209
REMARK   90  A    between atoms: _209  and  _210
REMARK   91  A    between atoms: _209  and  _212
REMARK   92  A    between atoms: _212  and  _213
REMARK   93  A    between atoms: _217  and  _218
REMARK   94  A    between atoms: _223  and  _225
REMARK   95  A    between atoms: _225  and  _226
REMARK   96  A    between atoms: _225  and  _228
REMARK   97  A    between atoms: _231  and  _233
REMARK   98  A    between atoms: _233  and  _234
REMARK   99  A    between atoms: _233  and  _236
REMARK  100  A    between atoms: _236  and  _237
REMARK  101  A    between atoms: _242  and  _244
REMARK  102  A    between atoms: _244  and  _245
REMARK  103  A    between atoms: _244  and  _247
REMARK  104  A    between atoms: _247  and  _248
REMARK  105  A    between atoms: _251  and  _253
REMARK  106  A    between atoms: _253  and  _254
REMARK  107  A    between atoms: _253  and  _256
REMARK  108  A    between atoms: _256  and  _257
REMARK  109  A    between atoms: _260  and  _262
REMARK  110  A    between atoms: _262  and  _263
REMARK  111  A    between atoms: _265  and  _267
REMARK  112  A    between atoms: _267  and  _268
REMARK  113  A    between atoms: _267  and  _270
REMARK  114  A    between atoms: _270  and  _271
REMARK  115  A    between atoms: _271  and  _272
REMARK  116  A    between atoms: _272  and  _273
REMARK  117  A    between atoms: _282  and  _284
REMARK  118  A    between atoms: _284  and  _285
REMARK  119  A    between atoms: _284  and  _287
REMARK  120  A    between atoms: _287  and  _288
REMARK  121  A    between atoms: _293  and  _295
REMARK  122  A    between atoms: _295  and  _296
REMARK  123  A    between atoms: _295  and  _298
REMARK  124  A    between atoms: _298  and  _299
REMARK  125  A    between atoms: _299  and  _300
REMARK  126  A    between atoms: _300  and  _301
REMARK  127  A    between atoms: _310  and  _312
REMARK  128  A    between atoms: _312  and  _313
REMARK  129  A    between atoms: _312  and  _315
REMARK  130  A    between atoms: _315  and  _316
REMARK  131  A    between atoms: _319  and  _321
REMARK  132  A    between atoms: _321  and  _322
REMARK  133  A    between atoms: _321  and  _324
REMARK  134  A    between atoms: _324  and  _325
REMARK  135  A    between atoms: _328  and  _330
REMARK  136  A    between atoms: _330  and  _331
REMARK  137  A    between atoms: _330  and  _333
REMARK  138  A    between atoms: _333  and  _334
REMARK  139  A    between atoms: _337  and  _339
REMARK  140  A    between atoms: _339  and  _340
REMARK  141  A    between atoms: _339  and  _342
REMARK  142  A    between atoms: _342  and  _343
REMARK  143  A    between atoms: _346  and  _348
REMARK  144  A    between atoms: _348  and  _349
REMARK  145  A    between atoms: _348  and  _351
REMARK  146  A    between atoms: _351  and  _352
REMARK  147  A    between atoms: _355  and  _357
REMARK  148  A    between atoms: _357  and  _358
REMARK  149  A    between atoms: _360  and  _362
REMARK  150  A    between atoms: _362  and  _363
REMARK  151  A    between atoms: _366  and  _368
REMARK  152  A    between atoms: _368  and  _369
REMARK  153  A    between atoms: _368  and  _371
REMARK  154  A    between atoms: _371  and  _372
REMARK  155  A    between atoms: _375  and  _377
REMARK  156  A    between atoms: _377  and  _378
REMARK  157  A    between atoms: _377  and  _380
REMARK  158  A    between atoms: _380  and  _381
REMARK  159  A    between atoms: _384  and  _386
REMARK  160  A    between atoms: _386  and  _387
REMARK  161  A    between atoms: _386  and  _389
REMARK  162  A    between atoms: _389  and  _390
REMARK  163  A    between atoms: _393  and  _395
REMARK  164  A    between atoms: _395  and  _396
REMARK  165  A    between atoms: _395  and  _398
REMARK  166  A    between atoms: _401  and  _403
REMARK  167  A    between atoms: _403  and  _404
REMARK  168  A    between atoms: _403  and  _406
REMARK  169  A    between atoms: _406  and  _407
REMARK  170  A    between atoms: _410  and  _412
REMARK  171  A    between atoms: _412  and  _413
REMARK  172  A    between atoms: _412  and  _415
REMARK  173  A    between atoms: _415  and  _416
REMARK  174  A    between atoms: _416  and  _417
REMARK  175  A    between atoms: _417  and  _418
REMARK  176  A    between atoms: _418  and  _419
REMARK  177  A    between atoms: _423  and  _425
REMARK  178  A    between atoms: _425  and  _426
REMARK  179  A    between atoms: _425  and  _428
REMARK  180  A    between atoms: _428  and  _429
REMARK  181  A    between atoms: _429  and  _430
REMARK  182  A    between atoms: _432  and  _434
REMARK  183  A    between atoms: _434  and  _435
REMARK  184  A    between atoms: _434  and  _437
REMARK  185  A    between atoms: _437  and  _438
REMARK  186  A    between atoms: _441  and  _443
REMARK  187  A    between atoms: _443  and  _444
REMARK  188  A    between atoms: _446  and  _448
REMARK  189  A    between atoms: _448  and  _449
REMARK  190  A    between atoms: _451  and  _453
REMARK  191  A    between atoms: _453  and  _454
REMARK  192  A    between atoms: _453  and  _456
REMARK  193  A    between atoms: _456  and  _457
REMARK  194  A    between atoms: _460  and  _462
REMARK  195  A    between atoms: _462  and  _463
REMARK  196  A    between atoms: _465  and  _467
REMARK  197  A    between atoms: _467  and  _468
REMARK  198  A    between atoms: _470  and  _472
REMARK  199  A    between atoms: _472  and  _473
REMARK  200  A    between atoms: _472  and  _475
REMARK  201  A    between atoms: _475  and  _476
REMARK  202  A    between atoms: _482  and  _484
REMARK  203  A    between atoms: _484  and  _485
REMARK  204  A    between atoms: _484  and  _487
REMARK  205  A    between atoms: _487  and  _488
REMARK  206  A    between atoms: _491  and  _493
REMARK  207  A    between atoms: _493  and  _494
REMARK  208  A    between atoms: _493  and  _496
REMARK  209  A    between atoms: _499  and  _501
REMARK  210  A    between atoms: _501  and  _502
REMARK  211  A    between atoms: _501  and  _504
REMARK  212  A    between atoms: _504  and  _505
REMARK  213  A    between atoms: _508  and  _510
REMARK  214  A    between atoms: _510  and  _511
REMARK  215  A    between atoms: _510  and  _513
REMARK  216  A    between atoms: _513  and  _514
REMARK  217  A    between atoms: _518  and  _519
REMARK  218  A    between atoms: _524  and  _526
REMARK  219  A    between atoms: _526  and  _527
REMARK  220  A    between atoms: _526  and  _529
REMARK  221  A    between atoms: _532  and  _534
REMARK  222  A    between atoms: _534  and  _535
REMARK  223  A    between atoms: _534  and  _537
REMARK  224  A    between atoms: _537  and  _538
REMARK  225  A    between atoms: _543  and  _545
REMARK  226  A    between atoms: _545  and  _546
REMARK  227  A    between atoms: _545  and  _548
REMARK  228  A    between atoms: _548  and  _549
REMARK  229  A    between atoms: _552  and  _554
REMARK  230  A    between atoms: _554  and  _555
REMARK  231  A    between atoms: _554  and  _557
REMARK  232  A    between atoms: _557  and  _558
REMARK  233  A    between atoms: _561  and  _563
REMARK  234  A    between atoms: _563  and  _564
REMARK  235  A    between atoms: _566  and  _568
REMARK  236  A    between atoms: _568  and  _569
REMARK  237  A    between atoms: _568  and  _571
REMARK  238  A    between atoms: _571  and  _572
REMARK  239  A    between atoms: _572  and  _573
REMARK  240  A    between atoms: _573  and  _574
REMARK  241  A    between atoms: _583  and  _585
REMARK  242  A    between atoms: _585  and  _586
REMARK  243  A    between atoms: _585  and  _588
REMARK  244  A    between atoms: _588  and  _589
REMARK                            x       y       z     vdW  Elec       q    Type
REMARK                         _______ _______ _______ _____ _____    ______ ____
ROOT
ATOM      1  NE  ARG A   1       7.058  30.064   0.811  0.00  0.00    -0.265 N 
ATOM      2  HE  ARG A   1       7.312  30.611   1.658  0.00  0.00    +0.259 HD
ATOM      3  CZ  ARG A   1       6.255  29.016   0.963  0.00  0.00    +0.342 C 
ATOM      4  NH2 ARG A   1       5.803  28.695   2.168  0.00  0.00    -0.292 N 
ATOM      5 HH21 ARG A   1       6.077  29.264   2.995  0.00  0.00    +0.255 HD
ATOM      6 HH22 ARG A   1       5.175  27.875   2.286  0.00  0.00    +0.255 HD
ATOM      7  NH1 ARG A   1       5.904  28.290  -0.093  0.00  0.00    -0.292 N 
ATOM      8 HH11 ARG A   1       5.276  27.470   0.025  0.00  0.00    +0.255 HD
ATOM      9 HH12 ARG A   1       6.258  28.542  -1.038  0.00  0.00    +0.255 HD
ENDROOT
BRANCH   1  10
ATOM     10  CD  ARG A   1       7.605  30.494  -0.471  0.00  0.00    +0.174 C 
BRANCH  10  11
ATOM     11  CG  ARG A   1       8.373  31.796  -0.338  0.00  0.00    +0.045 C 
BRANCH  11  12
ATOM     12  CB  ARG A   1       9.070  32.156  -1.628  0.00  0.00    +0.029 C 
BRANCH  12  13
ATOM     13  CA  ARG A   1      10.039  33.327  -1.482  0.00  0.00    +0.133 C 
BRANCH  13  14
ATOM     14  N   ARG A   1       9.309  34.584  -1.327  0.00  0.00    -0.239 NA
ATOM     15  H   ARG A   1       8.269  34.582  -1.308  0.00  0.00    +0.142 HD
ENDBRANCH  13  14
BRANCH  13  16
ATOM     16  C   ARG A   1      10.949  33.394  -2.701  0.00  0.00    +0.224 C 
ATOM     17  O   ARG A   1      10.553  33.895  -3.749  0.00  0.00    -0.287 OA
ENDBRANCH  13  16
ENDBRANCH  12  13
ENDBRANCH  11  12
ENDBRANCH  10  11
ENDBRANCH   1  10
TORSDOF 6
REMARK  Name = ../refined-set-2016/1d4j/1d4j_pocket.pdb
REMARK  244 active torsions:
REMARK  status: ('A' for Active; 'I' for Inactive)
REMARK    1  A    between atoms: _1  and  _3
REMARK    2  A    between atoms: _3  and  _4
REMARK    3  A    between atoms: _3  and  _6
REMARK    4  A    between atoms: _6  and  _7
REMARK    5  A    between atoms: _7  and  _8
REMARK    6  A    between atoms: _8  and  _9
REMARK    7  A    between atoms: _18  and  _20
REMARK    8  A    between atoms: _20  and  _21
REMARK    9  A    between atoms: _20  and  _23
REMARK   10  A    between atoms: _23  and  _24
REMARK   11  A    between atoms: _27  and  _29
REMARK   12  A    between atoms: _29  and  _30
REMARK   13  A    between atoms: _29  and  _32
REMARK   14  A    between atoms: _32  and  _33
REMARK   15  A    between atoms: _36  and  _38
REMARK   16  A    between atoms: _38  and  _39
REMARK   17  A    between atoms: _38  and  _41
REMARK   18  A    between atoms: _41  and  _42
REMARK   19  A    between atoms: _45  and  _47
REMARK   20  A    between atoms: _47  and  _48
REMARK   21  A    between atoms: _47  and  _50
REMARK   22  A    between atoms: _50  and  _51
REMARK   23  A    between atoms: _54  and  _56
REMARK   24  A    between atoms: _56  and  _57
REMARK   25  A    between atoms: _56  and  _59
REMARK   26  A    between atoms: _59  and  _60
REMARK   27  A    between atoms: _63  and  _65
REMARK   28  A    between atoms: _65  and  _66
REMARK   29  A    between atoms: _68  and  _70
REMARK   30  A    between atoms: _70  and  _71
REMARK   31  A    between atoms: _74  and  _76
REMARK   32  A    between atoms: _76  and  _77
REMARK   33  A    between atoms: _76  and  _79
REMARK   34  A    between atoms: _79  and  _80
REMARK   35  A    between atoms: _83  and  _85
REMARK   36  A    between atoms: _85  and  _86
REMARK   37  A    between atoms: _85  and  _88
REMARK   38  A    between atoms: _88  and  _89
REMARK   39  A    between atoms: _92  and  _94
REMARK   40  A    between atoms: _94  and  _95
REMARK   41  A    between atoms: _94  and  _97
REMARK   42  A    between atoms: _97  and  _98
REMARK   43  A    between atoms: _101  and  _103
REMARK   44  A    between atoms: _103  and  _104
REMARK   45  A    between atoms: _103  and  _106
REMARK   46  A    between atoms: _109  and  _111
REMARK   47  A    between atoms: _111  and  _112
REMARK   48  A    between atoms: _111  and  _114
REMARK   49  A    between atoms: _114  and  _115
REMARK   50  A    between atoms: _115  and  _116
REMARK   51  A    between atoms: _116  and  _117
REMARK   52  A    between atoms: _117  and  _118
REMARK   53  A    between atoms: _122  and  _124
REMARK   54  A    between atoms: _124  and  _125
REMARK   55  A    between atoms: _124  and  _127
REMARK   56  A    between atoms: _127  and  _128
REMARK   57  A    between atoms: _128  and  _129
REMARK   58  A    between atoms: _131  and  _133
REMARK   59  A    between atoms: _133  and  _134
REMARK   60  A    between atoms: _133  and  _136
REMARK   61  A    between atoms: _136  and  _137
REMARK   62  A    between atoms: _140  and  _142
REMARK   63  A    between atoms: _142  and  _143
REMARK   64  A    between atoms: _145  and  _147
REMARK   65  A    between atoms: _147  and  _148
REMARK   66  A    between atoms: _150  and  _152
REMARK   67  A    between atoms: _152  and  _153
REMARK   68  A    between atoms: _152  and  _155
REMARK   69  A    between atoms: _155  and  _156
REMARK   70  A    between atoms: _159  and  _161
REMARK   71  A    between atoms: _161  and  _162
REMARK   72  A    between atoms: _164  and  _166
REMARK   73  A    between atoms: _166  and  _167
REMARK   74  A    between atoms: _169  and  _171
REMARK   75  A    between atoms: _171  and  _172
REMARK   76  A    between atoms: _171  and  _174
REMARK   77  A    between atoms: _174  and  _175
REMARK   78  A    between atoms: _181  and  _183
REMARK   79  A    between atoms: _183  and  _184
REMARK   80  A    between atoms: _183  and  _186
REMARK   81  A    between atoms: _186  and  _187
REMARK   82  A    between atoms: _190  and  _192
REMARK   83  A    between atoms: _192  and  _193
REMARK   84  A    between atoms: _192  and  _195
REMARK   85  A    between atoms: _198  and  _200
REMARK   86  A    between atoms: _200  and  _201
REMARK   87  A    between atoms: _200  and  _203
REMARK   88  A    between atoms: _203  and  _204
REMARK   89  A    between atoms: _207  and  _209
REMARK   90  A    between atoms: _209  and  _210
REMARK   91  A    between atoms: _209  and  _212
REMARK   92  A    between atoms: _212  and  _213
REMARK   93  A    between atoms: _217  and  _218
REMARK   94  A    between atoms: _223  and  _225
REMARK   95  A    between atoms: _225  and  _226
REMARK   96  A    between atoms: _225  and  _228
REMARK   97  A    between atoms: _231  and  _233
REMARK   98  A    between atoms: _233  and  _234
REMARK   99  A    between atoms: _233  and  _236
REMARK  100  A    between atoms: _236  and  _237
REMARK  101  A    between atoms: _242  and  _244
REMARK  102  A    between atoms: _244  and  _245
REMARK  103  A    between atoms: _244  and  _247
REMARK  104  A    between atoms: _247  and  _248
REMARK  105  A    between atoms: _251  and  _253
REMARK  106  A    between atoms: _253  and  _254
REMARK  107  A    between atoms: _253  and  _256
REMARK  108  A    between atoms: _256  and  _257
REMARK  109  A    between atoms: _260  and  _262
REMARK  110  A    between atoms: _262  and  _263
REMARK  111  A    between atoms: _265  and  _267
REMARK  112  A    between atoms: _267  and  _268
REMARK  113  A    between atoms: _267  and  _270
REMARK  114  A    between atoms: _270  and  _271
REMARK  115  A    between atoms: _271  and  _272
REMARK  116  A    between atoms: _272  and  _273
REMARK  117  A    between atoms: _282  and  _284
REMARK  118  A    between atoms: _284  and  _285
REMARK  119  A    between atoms: _284  and  _287
REMARK  120  A    between atoms: _287  and  _288
REMARK  121  A    between atoms: _293  and  _295
REMARK  122  A    between atoms: _295  and  _296
REMARK  123  A    between atoms: _295  and  _298
REMARK  124  A    between atoms: _298  and  _299
REMARK  125  A    between atoms: _299  and  _300
REMARK  126  A    between atoms: _300  and  _301
REMARK  127  A    between atoms: _310  and  _312
REMARK  128  A    between atoms: _312  and  _313
REMARK  129  A    between atoms: _312  and  _315
REMARK  130  A    between atoms: _315  and  _316
REMARK  131  A    between atoms: _319  and  _321
REMARK  132  A    between atoms: _321  and  _322
REMARK  133  A    between atoms: _321  and  _324
REMARK  134  A    between atoms: _324  and  _325
REMARK  135  A    between atoms: _328  and  _330
REMARK  136  A    between atoms: _330  and  _331
REMARK  137  A    between atoms: _330  and  _333
REMARK  138  A    between atoms: _333  and  _334
REMARK  139  A    between atoms: _337  and  _339
REMARK  140  A    between atoms: _339  and  _340
REMARK  141  A    between atoms: _339  and  _342
REMARK  142  A    between atoms: _342  and  _343
REMARK  143  A    between atoms: _346  and  _348
REMARK  144  A    between atoms: _348  and  _349
REMARK  145  A    between atoms: _348  and  _351
REMARK  146  A    between atoms: _351  and  _352
REMARK  147  A    between atoms: _355  and  _357
REMARK  148  A    between atoms: _357  and  _358
REMARK  149  A    between atoms: _360  and  _362
REMARK  150  A    between atoms: _362  and  _363
REMARK  151  A    between atoms: _366  and  _368
REMARK  152  A    between atoms: _368  and  _369
REMARK  153  A    between atoms: _368  and  _371
REMARK  154  A    between atoms: _371  and  _372
REMARK  155  A    between atoms: _375  and  _377
REMARK  156  A    between atoms: _377  and  _378
REMARK  157  A    between atoms: _377  and  _380
REMARK  158  A    between atoms: _380  and  _381
REMARK  159  A    between atoms: _384  and  _386
REMARK  160  A    between atoms: _386  and  _387
REMARK  161  A    between atoms: _386  and  _389
REMARK  162  A    between atoms: _389  and  _390
REMARK  163  A    between atoms: _393  and  _395
REMARK  164  A    between atoms: _395  and  _396
REMARK  165  A    between atoms: _395  and  _398
REMARK  166  A    between atoms: _401  and  _403
REMARK  167  A    between atoms: _403  and  _404
REMARK  168  A    between atoms: _403  and  _406
REMARK  169  A    between atoms: _406  and  _407
REMARK  170  A    between atoms: _410  and  _412
REMARK  171  A    between atoms: _412  and  _413
REMARK  172  A    between atoms: _412  and  _415
REMARK  173  A    between atoms: _415  and  _416
REMARK  174  A    between atoms: _416  and  _417
REMARK  175  A    between atoms: _417  and  _418
REMARK  176  A    between atoms: _418  and  _419
REMARK  177  A    between atoms: _423  and  _425
REMARK  178  A    between atoms: _425  and  _426
REMARK  179  A    between atoms: _425  and  _428
REMARK  180  A    between atoms: _428  and  _429
REMARK  181  A    between atoms: _429  and  _430
REMARK  182  A    between atoms: _432  and  _434
REMARK  183  A    between atoms: _434  and  _435
REMARK  184  A    between atoms: _434  and  _437
REMARK  185  A    between atoms: _437  and  _438
REMARK  186  A    between atoms: _441  and  _443
REMARK  187  A    between atoms: _443  and  _444
REMARK  188  A    between atoms: _446  and  _448
REMARK  189  A    between atoms: _448  and  _449
REMARK  190  A    between atoms: _451  and  _453
REMARK  191  A    between atoms: _453  and  _454
REMARK  192  A    between atoms: _453  and  _456
REMARK  193  A    between atoms: _456  and  _457
REMARK  194  A    between atoms: _460  and  _462
REMARK  195  A    between atoms: _462  and  _463
REMARK  196  A    between atoms: _465  and  _467
REMARK  197  A    between atoms: _467  and  _468
REMARK  198  A    between atoms: _470  and  _472
REMARK  199  A    between atoms: _472  and  _473
REMARK  200  A    between atoms: _472  and  _475
REMARK  201  A    between atoms: _475  and  _476
REMARK  202  A    between atoms: _482  and  _484
REMARK  203  A    between atoms: _484  and  _485
REMARK  204  A    between atoms: _484  and  _487
REMARK  205  A    between atoms: _487  and  _488
REMARK  206  A    between atoms: _491  and  _493
REMARK  207  A    between atoms: _493  and  _494
REMARK  208  A    between atoms: _493  and  _496
REMARK  209  A    between atoms: _499  and  _501
REMARK  210  A    between atoms: _501  and  _502
REMARK  211  A    between atoms: _501  and  _504
REMARK  212  A    between atoms: _504  and  _505
REMARK  213  A    between atoms: _508  and  _510
REMARK  214  A    between atoms: _510  and  _511
REMARK  215  A    between atoms: _510  and  _513
REMARK  216  A    between atoms: _513  and  _514
REMARK  217  A    between atoms: _518  and  _519
REMARK  218  A    between atoms: _524  and  _526
REMARK  219  A    between atoms: _526  and  _527
REMARK  220  A    between atoms: _526  and  _529
REMARK  221  A    between atoms: _532  and  _534
REMARK  222  A    between atoms: _534  and  _535
REMARK  223  A    between atoms: _534  and  _537
REMARK  224  A    between atoms: _537  and  _538
REMARK  225  A    between atoms: _543  and  _545
REMARK  226  A    between atoms: _545  and  _546
REMARK  227  A    between atoms: _545  and  _548
REMARK  228  A    between atoms: _548  and  _549
REMARK  229  A    between atoms: _552  and  _554
REMARK  230  A    between atoms: _554  and  _555
REMARK  231  A    between atoms: _554  and  _557
REMARK  232  A    between atoms: _557  and  _558
REMARK  233  A    between atoms: _561  and  _563
REMARK  234  A    between atoms: _563  and  _564
REMARK  235  A    between atoms: _566  and  _568
REMARK  236  A    between atoms: _568  and  _569
REMARK  237  A    between atoms: _568  and  _571
REMARK  238  A    between atoms: _571  and  _572
REMARK  239  A    between atoms: _572  and  _573
REMARK  240  A    between atoms: _573  and  _574
REMARK  241  A    between atoms: _583  and  _585
REMARK  242  A    between atoms: _585  and  _586
REMARK  243  A    between atoms: _585  and  _588
REMARK  244  A    between atoms: _588  and  _589
REMARK                            x       y       z     vdW  Elec       q    Type
REMARK                         _______ _______ _______ _____ _____    ______ ____
ROOT
ATOM      1  CA  LEU A   1      11.343  30.944  -6.379  0.00  0.00    +0.133 C 
ENDROOT
BRANCH   1   2
ATOM      2  N   LEU A   1      11.758  31.939  -5.404  0.00  0.00    -0.239 NA
ATOM      3  H   LEU A   1      11.182  32.797  -5.287  0.00  0.00    +0.142 HD
ENDBRANCH   1   2
BRANCH   1   4
ATOM      4  C   LEU A   1      11.967  31.250  -7.730  0.00  0.00    +0.224 C 
ATOM      5  O   LEU A   1      12.016  32.405  -8.157  0.00  0.00    -0.287 OA
ENDBRANCH   1   4
BRANCH   1   6
ATOM      6  CB  LEU A   1       9.819  30.947  -6.523  0.00  0.00    +0.025 C 
BRANCH   6   7
ATOM      7  CG  LEU A   1       8.977  30.514  -5.325  0.00  0.00    +0.002 C 
ATOM      8  CD2 LEU A   1       9.202  29.032  -5.044  0.00  0.00    +0.000 C 
ATOM      9  CD1 LEU A   1       7.510  30.793  -5.615  0.00  0.00    +0.000 C 
ENDBRANCH   6   7
ENDBRANCH   1   6
TORSDOF 4
REMARK  Name = ../refined-set-2016/1d4j/1d4j_pocket.pdb
REMARK  244 active torsions:
REMARK  status: ('A' for Active; 'I' for Inactive)
REMARK    1  A    between atoms: _1  and  _3
REMARK    2  A    between atoms: _3  and  _4
REMARK    3  A    between atoms: _3  and  _6
REMARK    4  A    between atoms: _6  and  _7
REMARK    5  A    between atoms: _7  and  _8
REMARK    6  A    between atoms: _8  and  _9
REMARK    7  A    between atoms: _18  and  _20
REMARK    8  A    between atoms: _20  and  _21
REMARK    9  A    between atoms: _20  and  _23
REMARK   10  A    between atoms: _23  and  _24
REMARK   11  A    between atoms: _27  and  _29
REMARK   12  A    between atoms: _29  and  _30
REMARK   13  A    between atoms: _29  and  _32
REMARK   14  A    between atoms: _32  and  _33
REMARK   15  A    between atoms: _36  and  _38
REMARK   16  A    between atoms: _38  and  _39
REMARK   17  A    between atoms: _38  and  _41
REMARK   18  A    between atoms: _41  and  _42
REMARK   19  A    between atoms: _45  and  _47
REMARK   20  A    between atoms: _47  and  _48
REMARK   21  A    between atoms: _47  and  _50
REMARK   22  A    between atoms: _50  and  _51
REMARK   23  A    between atoms: _54  and  _56
REMARK   24  A    between atoms: _56  and  _57
REMARK   25  A    between atoms: _56  and  _59
REMARK   26  A    between atoms: _59  and  _60
REMARK   27  A    between atoms: _63  and  _65
REMARK   28  A    between atoms: _65  and  _66
REMARK   29  A    between atoms: _68  and  _70
REMARK   30  A    between atoms: _70  and  _71
REMARK   31  A    between atoms: _74  and  _76
REMARK   32  A    between atoms: _76  and  _77
REMARK   33  A    between atoms: _76  and  _79
REMARK   34  A    between atoms: _79  and  _80
REMARK   35  A    between atoms: _83  and  _85
REMARK   36  A    between atoms: _85  and  _86
REMARK   37  A    between atoms: _85  and  _88
REMARK   38  A    between atoms: _88  and  _89
REMARK   39  A    between atoms: _92  and  _94
REMARK   40  A    between atoms: _94  and  _95
REMARK   41  A    between atoms: _94  and  _97
REMARK   42  A    between atoms: _97  and  _98
REMARK   43  A    between atoms: _101  and  _103
REMARK   44  A    between atoms: _103  and  _104
REMARK   45  A    between atoms: _103  and  _106
REMARK   46  A    between atoms: _109  and  _111
REMARK   47  A    between atoms: _111  and  _112
REMARK   48  A    between atoms: _111  and  _114
REMARK   49  A    between atoms: _114  and  _115
REMARK   50  A    between atoms: _115  and  _116
REMARK   51  A    between atoms: _116  and  _117
REMARK   52  A    between atoms: _117  and  _118
REMARK   53  A    between atoms: _122  and  _124
REMARK   54  A    between atoms: _124  and  _125
REMARK   55  A    between atoms: _124  and  _127
REMARK   56  A    between atoms: _127  and  _128
REMARK   57  A    between atoms: _128  and  _129
REMARK   58  A    between atoms: _131  and  _133
REMARK   59  A    between atoms: _133  and  _134
REMARK   60  A    between atoms: _133  and  _136
REMARK   61  A    between atoms: _136  and  _137
REMARK   62  A    between atoms: _140  and  _142
REMARK   63  A    between atoms: _142  and  _143
REMARK   64  A    between atoms: _145  and  _147
REMARK   65  A    between atoms: _147  and  _148
REMARK   66  A    between atoms: _150  and  _152
REMARK   67  A    between atoms: _152  and  _153
REMARK   68  A    between atoms: _152  and  _155
REMARK   69  A    between atoms: _155  and  _156
REMARK   70  A    between atoms: _159  and  _161
REMARK   71  A    between atoms: _161  and  _162
REMARK   72  A    between atoms: _164  and  _166
REMARK   73  A    between atoms: _166  and  _167
REMARK   74  A    between atoms: _169  and  _171
REMARK   75  A    between atoms: _171  and  _172
REMARK   76  A    between atoms: _171  and  _174
REMARK   77  A    between atoms: _174  and  _175
REMARK   78  A    between atoms: _181  and  _183
REMARK   79  A    between atoms: _183  and  _184
REMARK   80  A    between atoms: _183  and  _186
REMARK   81  A    between atoms: _186  and  _187
REMARK   82  A    between atoms: _190  and  _192
REMARK   83  A    between atoms: _192  and  _193
REMARK   84  A    between atoms: _192  and  _195
REMARK   85  A    between atoms: _198  and  _200
REMARK   86  A    between atoms: _200  and  _201
REMARK   87  A    between atoms: _200  and  _203
REMARK   88  A    between atoms: _203  and  _204
REMARK   89  A    between atoms: _207  and  _209
REMARK   90  A    between atoms: _209  and  _210
REMARK   91  A    between atoms: _209  and  _212
REMARK   92  A    between atoms: _212  and  _213
REMARK   93  A    between atoms: _217  and  _218
REMARK   94  A    between atoms: _223  and  _225
REMARK   95  A    between atoms: _225  and  _226
REMARK   96  A    between atoms: _225  and  _228
REMARK   97  A    between atoms: _231  and  _233
REMARK   98  A    between atoms: _233  and  _234
REMARK   99  A    between atoms: _233  and  _236
REMARK  100  A    between atoms: _236  and  _237
REMARK  101  A    between atoms: _242  and  _244
REMARK  102  A    between atoms: _244  and  _245
REMARK  103  A    between atoms: _244  and  _247
REMARK  104  A    between atoms: _247  and  _248
REMARK  105  A    between atoms: _251  and  _253
REMARK  106  A    between atoms: _253  and  _254
REMARK  107  A    between atoms: _253  and  _256
REMARK  108  A    between atoms: _256  and  _257
REMARK  109  A    between atoms: _260  and  _262
REMARK  110  A    between atoms: _262  and  _263
REMARK  111  A    between atoms: _265  and  _267
REMARK  112  A    between atoms: _267  and  _268
REMARK  113  A    between atoms: _267  and  _270
REMARK  114  A    between atoms: _270  and  _271
REMARK  115  A    between atoms: _271  and  _272
REMARK  116  A    between atoms: _272  and  _273
REMARK  117  A    between atoms: _282  and  _284
REMARK  118  A    between atoms: _284  and  _285
REMARK  119  A    between atoms: _284  and  _287
REMARK  120  A    between atoms: _287  and  _288
REMARK  121  A    between atoms: _293  and  _295
REMARK  122  A    between atoms: _295  and  _296
REMARK  123  A    between atoms: _295  and  _298
REMARK  124  A    between atoms: _298  and  _299
REMARK  125  A    between atoms: _299  and  _300
REMARK  126  A    between atoms: _300  and  _301
REMARK  127  A    between atoms: _310  and  _312
REMARK  128  A    between atoms: _312  and  _313
REMARK  129  A    between atoms: _312  and  _315
REMARK  130  A    between atoms: _315  and  _316
REMARK  131  A    between atoms: _319  and  _321
REMARK  132  A    between atoms: _321  and  _322
REMARK  133  A    between atoms: _321  and  _324
REMARK  134  A    between atoms: _324  and  _325
REMARK  135  A    between atoms: _328  and  _330
REMARK  136  A    between atoms: _330  and  _331
REMARK  137  A    between atoms: _330  and  _333
REMARK  138  A    between atoms: _333  and  _334
REMARK  139  A    between atoms: _337  and  _339
REMARK  140  A    between atoms: _339  and  _340
REMARK  141  A    between atoms: _339  and  _342
REMARK  142  A    between atoms: _342  and  _343
REMARK  143  A    between atoms: _346  and  _348
REMARK  144  A    between atoms: _348  and  _349
REMARK  145  A    between atoms: _348  and  _351
REMARK  146  A    between atoms: _351  and  _352
REMARK  147  A    between atoms: _355  and  _357
REMARK  148  A    between atoms: _357  and  _358
REMARK  149  A    between atoms: _360  and  _362
REMARK  150  A    between atoms: _362  and  _363
REMARK  151  A    between atoms: _366  and  _368
REMARK  152  A    between atoms: _368  and  _369
REMARK  153  A    between atoms: _368  and  _371
REMARK  154  A    between atoms: _371  and  _372
REMARK  155  A    between atoms: _375  and  _377
REMARK  156  A    between atoms: _377  and  _378
REMARK  157  A    between atoms: _377  and  _380
REMARK  158  A    between atoms: _380  and  _381
REMARK  159  A    between atoms: _384  and  _386
REMARK  160  A    between atoms: _386  and  _387
REMARK  161  A    between atoms: _386  and  _389
REMARK  162  A    between atoms: _389  and  _390
REMARK  163  A    between atoms: _393  and  _395
REMARK  164  A    between atoms: _395  and  _396
REMARK  165  A    between atoms: _395  and  _398
REMARK  166  A    between atoms: _401  and  _403
REMARK  167  A    between atoms: _403  and  _404
REMARK  168  A    between atoms: _403  and  _406
REMARK  169  A    between atoms: _406  and  _407
REMARK  170  A    between atoms: _410  and  _412
REMARK  171  A    between atoms: _412  and  _413
REMARK  172  A    between atoms: _412  and  _415
REMARK  173  A    between atoms: _415  and  _416
REMARK  174  A    between atoms: _416  and  _417
REMARK  175  A    between atoms: _417  and  _418
REMARK  176  A    between atoms: _418  and  _419
REMARK  177  A    between atoms: _423  and  _425
REMARK  178  A    between atoms: _425  and  _426
REMARK  179  A    between atoms: _425  and  _428
REMARK  180  A    between atoms: _428  and  _429
REMARK  181  A    between atoms: _429  and  _430
REMARK  182  A    between atoms: _432  and  _434
REMARK  183  A    between atoms: _434  and  _435
REMARK  184  A    between atoms: _434  and  _437
REMARK  185  A    between atoms: _437  and  _438
REMARK  186  A    between atoms: _441  and  _443
REMARK  187  A    between atoms: _443  and  _444
REMARK  188  A    between atoms: _446  and  _448
REMARK  189  A    between atoms: _448  and  _449
REMARK  190  A    between atoms: _451  and  _453
REMARK  191  A    between atoms: _453  and  _454
REMARK  192  A    between atoms: _453  and  _456
REMARK  193  A    between atoms: _456  and  _457
REMARK  194  A    between atoms: _460  and  _462
REMARK  195  A    between atoms: _462  and  _463
REMARK  196  A    between atoms: _465  and  _467
REMARK  197  A    between atoms: _467  and  _468
REMARK  198  A    between atoms: _470  and  _472
REMARK  199  A    between atoms: _472  and  _473
REMARK  200  A    between atoms: _472  and  _475
REMARK  201  A    between atoms: _475  and  _476
REMARK  202  A    between atoms: _482  and  _484
REMARK  203  A    between atoms: _484  and  _485
REMARK  204  A    between atoms: _484  and  _487
REMARK  205  A    between atoms: _487  and  _488
REMARK  206  A    between atoms: _491  and  _493
REMARK  207  A    between atoms: _493  and  _494
REMARK  208  A    between atoms: _493  and  _496
REMARK  209  A    between atoms: _499  and  _501
REMARK  210  A    between atoms: _501  and  _502
REMARK  211  A    between atoms: _501  and  _504
REMARK  212  A    between atoms: _504  and  _505
REMARK  213  A    between atoms: _508  and  _510
REMARK  214  A    between atoms: _510  and  _511
REMARK  215  A    between atoms: _510  and  _513
REMARK  216  A    between atoms: _513  and  _514
REMARK  217  A    between atoms: _518  and  _519
REMARK  218  A    between atoms: _524  and  _526
REMARK  219  A    between atoms: _526  and  _527
REMARK  220  A    between atoms: _526  and  _529
REMARK  221  A    between atoms: _532  and  _534
REMARK  222  A    between atoms: _534  and  _535
REMARK  223  A    between atoms: _534  and  _537
REMARK  224  A    between atoms: _537  and  _538
REMARK  225  A    between atoms: _543  and  _545
REMARK  226  A    between atoms: _545  and  _546
REMARK  227  A    between atoms: _545  and  _548
REMARK  228  A    between atoms: _548  and  _549
REMARK  229  A    between atoms: _552  and  _554
REMARK  230  A    between atoms: _554  and  _555
REMARK  231  A    between atoms: _554  and  _557
REMARK  232  A    between atoms: _557  and  _558
REMARK  233  A    between atoms: _561  and  _563
REMARK  234  A    between atoms: _563  and  _564
REMARK  235  A    between atoms: _566  and  _568
REMARK  236  A    between atoms: _568  and  _569
REMARK  237  A    between atoms: _568  and  _571
REMARK  238  A    between atoms: _571  and  _572
REMARK  239  A    between atoms: _572  and  _573
REMARK  240  A    between atoms: _573  and  _574
REMARK  241  A    between atoms: _583  and  _585
REMARK  242  A    between atoms: _585  and  _586
REMARK  243  A    between atoms: _585  and  _588
REMARK  244  A    between atoms: _588  and  _589
REMARK                            x       y       z     vdW  Elec       q    Type
REMARK                         _______ _______ _______ _____ _____    ______ ____
ROOT
ATOM      1  C   ALA A   6      19.689  21.812   2.132  0.00  0.00    +0.241 C 
ATOM      2  N   ASP A   7      20.159  20.720   2.728  0.00  0.00    -0.297 N 
ATOM      3  H   ASP A   7      19.590  20.248   3.459  0.00  0.00    +0.150 HD
ATOM      4  O   ALA A   6      20.309  22.416   1.260  0.00  0.00    -0.273 OA
ENDROOT
BRANCH   1   5
ATOM      5  CA  ALA A   6      18.317  22.297   2.573  0.00  0.00    +0.149 C 
ATOM      6  CB  ALA A   6      17.352  22.227   1.400  0.00  0.00    +0.031 C 
BRANCH   5   9
ATOM      7  C   GLY A   5      18.405  23.953   4.359  0.00  0.00    +0.243 C 
ATOM      8  O   GLY A   5      18.321  23.085   5.232  0.00  0.00    -0.273 OA
ATOM      9  N   ALA A   6      18.410  23.668   3.062  0.00  0.00    -0.297 N 
ATOM     10  H   ALA A   6      18.482  24.445   2.375  0.00  0.00    +0.150 HD
BRANCH   7  11
ATOM     11  CA  GLY A   5      18.510  25.428   4.724  0.00  0.00    +0.176 C 
BRANCH  11  14
ATOM     12  C   THR A   4      19.921  26.529   3.097  0.00  0.00    +0.243 C 
ATOM     13  O   THR A   4      20.936  26.051   3.610  0.00  0.00    -0.273 OA
ATOM     14  N   GLY A   5      18.700  26.287   3.564  0.00  0.00    -0.295 N 
ATOM     15  H   GLY A   5      17.875  26.714   3.097  0.00  0.00    +0.150 HD
BRANCH  12  16
ATOM     16  CA  THR A   4      20.025  27.435   1.864  0.00  0.00    +0.176 C 
BRANCH  16  18
ATOM     17  C   ASP A   3      18.170  26.591   0.542  0.00  0.00    +0.241 C 
ATOM     18  N   THR A   4      18.743  27.600   1.193  0.00  0.00    -0.295 N 
ATOM     19  H   THR A   4      18.266  28.524   1.223  0.00  0.00    +0.150 HD
ATOM     20  O   ASP A   3      18.670  25.469   0.478  0.00  0.00    -0.273 OA
BRANCH  17  21
ATOM     21  CA  ASP A   3      16.823  26.877  -0.123  0.00  0.00    +0.160 C 
BRANCH  21  24
ATOM     22  C   LEU A   2      16.458  28.285  -2.078  0.00  0.00    +0.241 C 
ATOM     23  O   LEU A   2      16.136  29.263  -1.402  0.00  0.00    -0.273 OA
ATOM     24  N   ASP A   3      16.858  27.133  -1.554  0.00  0.00    -0.297 N 
ATOM     25  H   ASP A   3      17.209  26.388  -2.189  0.00  0.00    +0.150 HD
BRANCH  22  26
ATOM     26  CA  LEU A   2      16.426  28.335  -3.602  0.00  0.00    +0.149 C 
BRANCH  26  29
ATOM     27  C   LEU A   1      14.285  27.205  -3.853  0.00  0.00    +0.238 C 
ATOM     28  O   LEU A   1      14.803  26.102  -3.666  0.00  0.00    -0.274 OA
ATOM     29  N   LEU A   2      14.988  28.336  -3.876  0.00  0.00    -0.297 N 
ATOM     30  H   LEU A   2      14.508  29.233  -4.092  0.00  0.00    +0.150 HD
BRANCH  27  31
ATOM     31  CA  LEU A   1      12.781  27.319  -4.091  0.00  0.00    +0.145 C 
BRANCH  31  32
ATOM     32  N   LEU A   1      12.335  26.371  -5.098  0.00  0.00    -0.238 NA
ATOM     33  H   LEU A   1      12.191  25.378  -4.823  0.00  0.00    +0.142 HD
ENDBRANCH  31  32
BRANCH  31  34
ATOM     34  CB  LEU A   1      12.025  27.016  -2.794  0.00  0.00    +0.026 C 
BRANCH  34  35
ATOM     35  CG  LEU A   1      12.138  27.882  -1.544  0.00  0.00    +0.002 C 
ATOM     36  CD2 LEU A   1      11.424  27.166  -0.396  0.00  0.00    +0.000 C 
ATOM     37  CD1 LEU A   1      11.504  29.233  -1.788  0.00  0.00    +0.000 C 
ENDBRANCH  34  35
ENDBRANCH  31  34
ENDBRANCH  27  31
ENDBRANCH  26  29
BRANCH  26  38
ATOM     38  CB  LEU A   2      17.077  29.612  -4.129  0.00  0.00    +0.029 C 
BRANCH  38  39
ATOM     39  CG  LEU A   2      16.999  29.783  -5.645  0.00  0.00    +0.002 C 
ATOM     40  CD2 LEU A   2      17.753  31.045  -6.032  0.00  0.00    +0.000 C 
ATOM     41  CD1 LEU A   2      17.599  28.566  -6.349  0.00  0.00    +0.000 C 
ENDBRANCH  38  39
ENDBRANCH  26  38
ENDBRANCH  22  26
ENDBRANCH  21  24
BRANCH  21  42
ATOM     42  CB  ASP A   3      15.881  25.692   0.094  0.00  0.00    +0.143 C 
BRANCH  42  43
ATOM     43  CG  ASP A   3      15.424  25.559   1.522  0.00  0.00    +0.367 C 
ATOM     44  OD2 ASP A   3      16.040  26.182   2.410  0.00  0.00    -0.246 OA
ATOM     45  OD1 ASP A   3      14.446  24.821   1.740  0.00  0.00    -0.246 OA
ENDBRANCH  42  43
ENDBRANCH  21  42
ENDBRANCH  17  21
ENDBRANCH  16  18
BRANCH  16  46
ATOM     46  CB  THR A   4      20.616  28.799   2.290  0.00  0.00    +0.137 C 
ATOM     47  CG2 THR A   4      20.811  29.699   1.074  0.00  0.00    +0.034 C 
BRANCH  46  48
ATOM     48  OG1 THR A   4      19.726  29.447   3.202  0.00  0.00    -0.382 OA
ATOM     49  HG1 THR A   4      19.604  28.878   4.003  0.00  0.00    +0.210 HD
ENDBRANCH  46  48
ENDBRANCH  16  46
ENDBRANCH  12  16
ENDBRANCH  11  14
ENDBRANCH   7  11
ENDBRANCH   5   9
ENDBRANCH   1   5
BRANCH   2  50
ATOM     50  CA  ASP A   7      21.465  20.177   2.367  0.00  0.00    +0.160 C 
BRANCH  50  51
ATOM     51  C   ASP A   7      21.444  19.658   0.941  0.00  0.00    +0.241 C 
ATOM     52  N   ASP A   8      20.328  19.032   0.578  0.00  0.00    -0.297 N 
ATOM     53  H   ASP A   8      19.544  18.964   1.258  0.00  0.00    +0.150 HD
ATOM     54  O   ASP A   7      22.415  19.802   0.202  0.00  0.00    -0.273 OA
BRANCH  52  55
ATOM     55  CA  ASP A   8      20.170  18.441  -0.739  0.00  0.00    +0.160 C 
BRANCH  55  56
ATOM     56  C   ASP A   8      19.014  19.046  -1.516  0.00  0.00    +0.241 C 
ATOM     57  O   ASP A   8      18.267  19.885  -1.009  0.00  0.00    -0.273 OA
ATOM     58  N   THR A   9      18.876  18.584  -2.752  0.00  0.00    -0.295 N 
ATOM     59  H   THR A   9      19.545  17.863  -3.089  0.00  0.00    +0.150 HD
BRANCH  58  60
ATOM     60  CA  THR A   9      17.836  19.037  -3.656  0.00  0.00    +0.176 C 
BRANCH  60  61
ATOM     61  C   THR A   9      16.773  17.954  -3.728  0.00  0.00    +0.243 C 
ATOM     62  N   VAL A  10      15.524  18.330  -3.485  0.00  0.00    -0.297 N 
ATOM     63  H   VAL A  10      15.318  19.324  -3.259  0.00  0.00    +0.150 HD
ATOM     64  O   THR A   9      17.078  16.793  -3.978  0.00  0.00    -0.273 OA
BRANCH  62  65
ATOM     65  CA  VAL A  10      14.443  17.360  -3.533  0.00  0.00    +0.149 C 
BRANCH  65  66
ATOM     66  C   VAL A  10      13.282  17.925  -4.338  0.00  0.00    +0.241 C 
ATOM     67  O   VAL A  10      12.847  19.060  -4.130  0.00  0.00    -0.273 OA
ATOM     68  N   LEU A  11      12.800  17.126  -5.278  0.00  0.00    -0.298 N 
ATOM     69  H   LEU A  11      13.210  16.178  -5.398  0.00  0.00    +0.150 HD
BRANCH  68  70
ATOM     70  CA  LEU A  11      11.713  17.544  -6.145  0.00  0.00    +0.137 C 
BRANCH  70  71
ATOM     71  C   LEU A  11      10.487  16.676  -5.961  0.00  0.00    +0.227 C 
ATOM     72  O   LEU A  11      10.573  15.536  -5.505  0.00  0.00    -0.286 OA
ENDBRANCH  70  71
BRANCH  70  73
ATOM     73  CB  LEU A  11      12.155  17.467  -7.605  0.00  0.00    +0.028 C 
BRANCH  73  74
ATOM     74  CG  LEU A  11      13.417  18.242  -7.974  0.00  0.00    +0.002 C 
ATOM     75  CD2 LEU A  11      13.157  19.722  -7.824  0.00  0.00    +0.000 C 
ATOM     76  CD1 LEU A  11      13.823  17.902  -9.411  0.00  0.00    +0.000 C 
ENDBRANCH  73  74
ENDBRANCH  70  73
ENDBRANCH  68  70
ENDBRANCH  65  66
BRANCH  65  77
ATOM     77  CB  VAL A  10      13.989  16.954  -2.102  0.00  0.00    +0.027 C 
ATOM     78  CG2 VAL A  10      13.527  18.165  -1.329  0.00  0.00    +0.002 C 
ATOM     79  CG1 VAL A  10      12.885  15.897  -2.181  0.00  0.00    +0.002 C 
ENDBRANCH  65  77
ENDBRANCH  62  65
ENDBRANCH  60  61
BRANCH  60  80
ATOM     80  CB  THR A   9      18.423  19.289  -5.052  0.00  0.00    +0.137 C 
ATOM     81  CG2 THR A   9      17.326  19.584  -6.069  0.00  0.00    +0.034 C 
BRANCH  80  82
ATOM     82  OG1 THR A   9      19.325  20.396  -4.980  0.00  0.00    -0.382 OA
ATOM     83  HG1 THR A   9      20.053  20.186  -4.342  0.00  0.00    +0.210 HD
ENDBRANCH  80  82
ENDBRANCH  60  80
ENDBRANCH  58  60
ENDBRANCH  55  56
BRANCH  55  84
ATOM     84  CB  ASP A   8      19.940  16.934  -0.604  0.00  0.00    +0.143 C 
BRANCH  84  85
ATOM     85  CG  ASP A   8      20.996  16.255   0.250  0.00  0.00    +0.367 C 
ATOM     86  OD2 ASP A   8      20.629  15.572   1.238  0.00  0.00    -0.246 OA
ATOM     87  OD1 ASP A   8      22.189  16.401  -0.072  0.00  0.00    -0.246 OA
ENDBRANCH  84  85
ENDBRANCH  55  84
ENDBRANCH  52  55
ENDBRANCH  50  51
BRANCH  50  88
ATOM     88  CB  ASP A   7      21.855  19.002   3.265  0.00  0.00    +0.143 C 
BRANCH  88  89
ATOM     89  CG  ASP A   7      22.058  19.396   4.708  0.00  0.00    +0.367 C 
ATOM     90  OD2 ASP A   7      21.902  18.509   5.568  0.00  0.00    -0.246 OA
ATOM     91  OD1 ASP A   7      22.388  20.566   4.987  0.00  0.00    -0.246 OA
ENDBRANCH  88  89
ENDBRANCH  50  88
ENDBRANCH   2  50
TORSDOF 39
REMARK  Name = ../refined-set-2016/1d4j/1d4j_pocket.pdb
REMARK  244 active torsions:
REMARK  status: ('A' for Active; 'I' for Inactive)
REMARK    1  A    between atoms: _1  and  _3
REMARK    2  A    between atoms: _3  and  _4
REMARK    3  A    between atoms: _3  and  _6
REMARK    4  A    between atoms: _6  and  _7
REMARK    5  A    between atoms: _7  and  _8
REMARK    6  A    between atoms: _8  and  _9
REMARK    7  A    between atoms: _18  and  _20
REMARK    8  A    between atoms: _20  and  _21
REMARK    9  A    between atoms: _20  and  _23
REMARK   10  A    between atoms: _23  and  _24
REMARK   11  A    between atoms: _27  and  _29
REMARK   12  A    between atoms: _29  and  _30
REMARK   13  A    between atoms: _29  and  _32
REMARK   14  A    between atoms: _32  and  _33
REMARK   15  A    between atoms: _36  and  _38
REMARK   16  A    between atoms: _38  and  _39
REMARK   17  A    between atoms: _38  and  _41
REMARK   18  A    between atoms: _41  and  _42
REMARK   19  A    between atoms: _45  and  _47
REMARK   20  A    between atoms: _47  and  _48
REMARK   21  A    between atoms: _47  and  _50
REMARK   22  A    between atoms: _50  and  _51
REMARK   23  A    between atoms: _54  and  _56
REMARK   24  A    between atoms: _56  and  _57
REMARK   25  A    between atoms: _56  and  _59
REMARK   26  A    between atoms: _59  and  _60
REMARK   27  A    between atoms: _63  and  _65
REMARK   28  A    between atoms: _65  and  _66
REMARK   29  A    between atoms: _68  and  _70
REMARK   30  A    between atoms: _70  and  _71
REMARK   31  A    between atoms: _74  and  _76
REMARK   32  A    between atoms: _76  and  _77
REMARK   33  A    between atoms: _76  and  _79
REMARK   34  A    between atoms: _79  and  _80
REMARK   35  A    between atoms: _83  and  _85
REMARK   36  A    between atoms: _85  and  _86
REMARK   37  A    between atoms: _85  and  _88
REMARK   38  A    between atoms: _88  and  _89
REMARK   39  A    between atoms: _92  and  _94
REMARK   40  A    between atoms: _94  and  _95
REMARK   41  A    between atoms: _94  and  _97
REMARK   42  A    between atoms: _97  and  _98
REMARK   43  A    between atoms: _101  and  _103
REMARK   44  A    between atoms: _103  and  _104
REMARK   45  A    between atoms: _103  and  _106
REMARK   46  A    between atoms: _109  and  _111
REMARK   47  A    between atoms: _111  and  _112
REMARK   48  A    between atoms: _111  and  _114
REMARK   49  A    between atoms: _114  and  _115
REMARK   50  A    between atoms: _115  and  _116
REMARK   51  A    between atoms: _116  and  _117
REMARK   52  A    between atoms: _117  and  _118
REMARK   53  A    between atoms: _122  and  _124
REMARK   54  A    between atoms: _124  and  _125
REMARK   55  A    between atoms: _124  and  _127
REMARK   56  A    between atoms: _127  and  _128
REMARK   57  A    between atoms: _128  and  _129
REMARK   58  A    between atoms: _131  and  _133
REMARK   59  A    between atoms: _133  and  _134
REMARK   60  A    between atoms: _133  and  _136
REMARK   61  A    between atoms: _136  and  _137
REMARK   62  A    between atoms: _140  and  _142
REMARK   63  A    between atoms: _142  and  _143
REMARK   64  A    between atoms: _145  and  _147
REMARK   65  A    between atoms: _147  and  _148
REMARK   66  A    between atoms: _150  and  _152
REMARK   67  A    between atoms: _152  and  _153
REMARK   68  A    between atoms: _152  and  _155
REMARK   69  A    between atoms: _155  and  _156
REMARK   70  A    between atoms: _159  and  _161
REMARK   71  A    between atoms: _161  and  _162
REMARK   72  A    between atoms: _164  and  _166
REMARK   73  A    between atoms: _166  and  _167
REMARK   74  A    between atoms: _169  and  _171
REMARK   75  A    between atoms: _171  and  _172
REMARK   76  A    between atoms: _171  and  _174
REMARK   77  A    between atoms: _174  and  _175
REMARK   78  A    between atoms: _181  and  _183
REMARK   79  A    between atoms: _183  and  _184
REMARK   80  A    between atoms: _183  and  _186
REMARK   81  A    between atoms: _186  and  _187
REMARK   82  A    between atoms: _190  and  _192
REMARK   83  A    between atoms: _192  and  _193
REMARK   84  A    between atoms: _192  and  _195
REMARK   85  A    between atoms: _198  and  _200
REMARK   86  A    between atoms: _200  and  _201
REMARK   87  A    between atoms: _200  and  _203
REMARK   88  A    between atoms: _203  and  _204
REMARK   89  A    between atoms: _207  and  _209
REMARK   90  A    between atoms: _209  and  _210
REMARK   91  A    between atoms: _209  and  _212
REMARK   92  A    between atoms: _212  and  _213
REMARK   93  A    between atoms: _217  and  _218
REMARK   94  A    between atoms: _223  and  _225
REMARK   95  A    between atoms: _225  and  _226
REMARK   96  A    between atoms: _225  and  _228
REMARK   97  A    between atoms: _231  and  _233
REMARK   98  A    between atoms: _233  and  _234
REMARK   99  A    between atoms: _233  and  _236
REMARK  100  A    between atoms: _236  and  _237
REMARK  101  A    between atoms: _242  and  _244
REMARK  102  A    between atoms: _244  and  _245
REMARK  103  A    between atoms: _244  and  _247
REMARK  104  A    between atoms: _247  and  _248
REMARK  105  A    between atoms: _251  and  _253
REMARK  106  A    between atoms: _253  and  _254
REMARK  107  A    between atoms: _253  and  _256
REMARK  108  A    between atoms: _256  and  _257
REMARK  109  A    between atoms: _260  and  _262
REMARK  110  A    between atoms: _262  and  _263
REMARK  111  A    between atoms: _265  and  _267
REMARK  112  A    between atoms: _267  and  _268
REMARK  113  A    between atoms: _267  and  _270
REMARK  114  A    between atoms: _270  and  _271
REMARK  115  A    between atoms: _271  and  _272
REMARK  116  A    between atoms: _272  and  _273
REMARK  117  A    between atoms: _282  and  _284
REMARK  118  A    between atoms: _284  and  _285
REMARK  119  A    between atoms: _284  and  _287
REMARK  120  A    between atoms: _287  and  _288
REMARK  121  A    between atoms: _293  and  _295
REMARK  122  A    between atoms: _295  and  _296
REMARK  123  A    between atoms: _295  and  _298
REMARK  124  A    between atoms: _298  and  _299
REMARK  125  A    between atoms: _299  and  _300
REMARK  126  A    between atoms: _300  and  _301
REMARK  127  A    between atoms: _310  and  _312
REMARK  128  A    between atoms: _312  and  _313
REMARK  129  A    between atoms: _312  and  _315
REMARK  130  A    between atoms: _315  and  _316
REMARK  131  A    between atoms: _319  and  _321
REMARK  132  A    between atoms: _321  and  _322
REMARK  133  A    between atoms: _321  and  _324
REMARK  134  A    between atoms: _324  and  _325
REMARK  135  A    between atoms: _328  and  _330
REMARK  136  A    between atoms: _330  and  _331
REMARK  137  A    between atoms: _330  and  _333
REMARK  138  A    between atoms: _333  and  _334
REMARK  139  A    between atoms: _337  and  _339
REMARK  140  A    between atoms: _339  and  _340
REMARK  141  A    between atoms: _339  and  _342
REMARK  142  A    between atoms: _342  and  _343
REMARK  143  A    between atoms: _346  and  _348
REMARK  144  A    between atoms: _348  and  _349
REMARK  145  A    between atoms: _348  and  _351
REMARK  146  A    between atoms: _351  and  _352
REMARK  147  A    between atoms: _355  and  _357
REMARK  148  A    between atoms: _357  and  _358
REMARK  149  A    between atoms: _360  and  _362
REMARK  150  A    between atoms: _362  and  _363
REMARK  151  A    between atoms: _366  and  _368
REMARK  152  A    between atoms: _368  and  _369
REMARK  153  A    between atoms: _368  and  _371
REMARK  154  A    between atoms: _371  and  _372
REMARK  155  A    between atoms: _375  and  _377
REMARK  156  A    between atoms: _377  and  _378
REMARK  157  A    between atoms: _377  and  _380
REMARK  158  A    between atoms: _380  and  _381
REMARK  159  A    between atoms: _384  and  _386
REMARK  160  A    between atoms: _386  and  _387
REMARK  161  A    between atoms: _386  and  _389
REMARK  162  A    between atoms: _389  and  _390
REMARK  163  A    between atoms: _393  and  _395
REMARK  164  A    between atoms: _395  and  _396
REMARK  165  A    between atoms: _395  and  _398
REMARK  166  A    between atoms: _401  and  _403
REMARK  167  A    between atoms: _403  and  _404
REMARK  168  A    between atoms: _403  and  _406
REMARK  169  A    between atoms: _406  and  _407
REMARK  170  A    between atoms: _410  and  _412
REMARK  171  A    between atoms: _412  and  _413
REMARK  172  A    between atoms: _412  and  _415
REMARK  173  A    between atoms: _415  and  _416
REMARK  174  A    between atoms: _416  and  _417
REMARK  175  A    between atoms: _417  and  _418
REMARK  176  A    between atoms: _418  and  _419
REMARK  177  A    between atoms: _423  and  _425
REMARK  178  A    between atoms: _425  and  _426
REMARK  179  A    between atoms: _425  and  _428
REMARK  180  A    between atoms: _428  and  _429
REMARK  181  A    between atoms: _429  and  _430
REMARK  182  A    between atoms: _432  and  _434
REMARK  183  A    between atoms: _434  and  _435
REMARK  184  A    between atoms: _434  and  _437
REMARK  185  A    between atoms: _437  and  _438
REMARK  186  A    between atoms: _441  and  _443
REMARK  187  A    between atoms: _443  and  _444
REMARK  188  A    between atoms: _446  and  _448
REMARK  189  A    between atoms: _448  and  _449
REMARK  190  A    between atoms: _451  and  _453
REMARK  191  A    between atoms: _453  and  _454
REMARK  192  A    between atoms: _453  and  _456
REMARK  193  A    between atoms: _456  and  _457
REMARK  194  A    between atoms: _460  and  _462
REMARK  195  A    between atoms: _462  and  _463
REMARK  196  A    between atoms: _465  and  _467
REMARK  197  A    between atoms: _467  and  _468
REMARK  198  A    between atoms: _470  and  _472
REMARK  199  A    between atoms: _472  and  _473
REMARK  200  A    between atoms: _472  and  _475
REMARK  201  A    between atoms: _475  and  _476
REMARK  202  A    between atoms: _482  and  _484
REMARK  203  A    between atoms: _484  and  _485
REMARK  204  A    between atoms: _484  and  _487
REMARK  205  A    between atoms: _487  and  _488
REMARK  206  A    between atoms: _491  and  _493
REMARK  207  A    between atoms: _493  and  _494
REMARK  208  A    between atoms: _493  and  _496
REMARK  209  A    between atoms: _499  and  _501
REMARK  210  A    between atoms: _501  and  _502
REMARK  211  A    between atoms: _501  and  _504
REMARK  212  A    between atoms: _504  and  _505
REMARK  213  A    between atoms: _508  and  _510
REMARK  214  A    between atoms: _510  and  _511
REMARK  215  A    between atoms: _510  and  _513
REMARK  216  A    between atoms: _513  and  _514
REMARK  217  A    between atoms: _518  and  _519
REMARK  218  A    between atoms: _524  and  _526
REMARK  219  A    between atoms: _526  and  _527
REMARK  220  A    between atoms: _526  and  _529
REMARK  221  A    between atoms: _532  and  _534
REMARK  222  A    between atoms: _534  and  _535
REMARK  223  A    between atoms: _534  and  _537
REMARK  224  A    between atoms: _537  and  _538
REMARK  225  A    between atoms: _543  and  _545
REMARK  226  A    between atoms: _545  and  _546
REMARK  227  A    between atoms: _545  and  _548
REMARK  228  A    between atoms: _548  and  _549
REMARK  229  A    between atoms: _552  and  _554
REMARK  230  A    between atoms: _554  and  _555
REMARK  231  A    between atoms: _554  and  _557
REMARK  232  A    between atoms: _557  and  _558
REMARK  233  A    between atoms: _561  and  _563
REMARK  234  A    between atoms: _563  and  _564
REMARK  235  A    between atoms: _566  and  _568
REMARK  236  A    between atoms: _568  and  _569
REMARK  237  A    between atoms: _568  and  _571
REMARK  238  A    between atoms: _571  and  _572
REMARK  239  A    between atoms: _572  and  _573
REMARK  240  A    between atoms: _573  and  _574
REMARK  241  A    between atoms: _583  and  _585
REMARK  242  A    between atoms: _585  and  _586
REMARK  243  A    between atoms: _585  and  _588
REMARK  244  A    between atoms: _588  and  _589
REMARK                            x       y       z     vdW  Elec       q    Type
REMARK                         _______ _______ _______ _____ _____    ______ ____
ROOT
ATOM      1  C   GLY A   5      12.467  18.604   9.434  0.00  0.00    +0.243 C 
ATOM      2  O   GLY A   5      12.654  17.896  10.425  0.00  0.00    -0.273 OA
ATOM      3  N   ILE A   6      11.739  19.715   9.477  0.00  0.00    -0.297 N 
ATOM      4  H   ILE A   6      11.586  20.266   8.609  0.00  0.00    +0.150 HD
ENDROOT
BRANCH   3   5
ATOM      5  CA  ILE A   6      11.152  20.167  10.736  0.00  0.00    +0.149 C 
BRANCH   5   6
ATOM      6  C   ILE A   6      10.036  19.269  11.261  0.00  0.00    +0.241 C 
ATOM      7  O   ILE A   6       9.825  19.190  12.471  0.00  0.00    -0.273 OA
ATOM      8  N   GLY A   7       9.321  18.601  10.360  0.00  0.00    -0.295 N 
ATOM      9  H   GLY A   7       9.547  18.689   9.349  0.00  0.00    +0.150 HD
BRANCH   8  10
ATOM     10  CA  GLY A   7       8.223  17.748  10.788  0.00  0.00    +0.176 C 
BRANCH  10  11
ATOM     11  C   GLY A   7       8.545  16.277  10.978  0.00  0.00    +0.243 C 
ATOM     12  O   GLY A   7       7.705  15.514  11.452  0.00  0.00    -0.273 OA
ATOM     13  N   GLY A   8       9.761  15.877  10.623  0.00  0.00    -0.295 N 
ATOM     14  H   GLY A   8      10.440  16.568  10.245  0.00  0.00    +0.150 HD
BRANCH  13  15
ATOM     15  CA  GLY A   8      10.151  14.485  10.757  0.00  0.00    +0.176 C 
BRANCH  15  16
ATOM     16  C   GLY A   8      10.925  14.035   9.534  0.00  0.00    +0.243 C 
ATOM     17  N   PHE A   9      10.859  12.746   9.214  0.00  0.00    -0.297 N 
ATOM     18  H   PHE A   9      10.285  12.102   9.795  0.00  0.00    +0.150 HD
ATOM     19  O   GLY A   8      11.567  14.847   8.878  0.00  0.00    -0.273 OA
BRANCH  17  20
ATOM     20  CA  PHE A   9      11.582  12.223   8.058  0.00  0.00    +0.153 C 
BRANCH  20  21
ATOM     21  C   PHE A   9      10.683  11.709   6.948  0.00  0.00    +0.241 C 
ATOM     22  O   PHE A   9       9.534  11.333   7.175  0.00  0.00    -0.273 OA
ATOM     23  N   ILE A  10      11.218  11.707   5.734  0.00  0.00    -0.298 N 
ATOM     24  H   ILE A  10      12.174  12.092   5.598  0.00  0.00    +0.150 HD
BRANCH  23  25
ATOM     25  CA  ILE A  10      10.497  11.179   4.594  0.00  0.00    +0.137 C 
BRANCH  25  26
ATOM     26  C   ILE A  10      11.505  10.367   3.794  0.00  0.00    +0.227 C 
ATOM     27  O   ILE A  10      12.709  10.623   3.852  0.00  0.00    -0.286 OA
ENDBRANCH  25  26
BRANCH  25  28
ATOM     28  CB  ILE A  10       9.887  12.284   3.691  0.00  0.00    +0.026 C 
ATOM     29  CG2 ILE A  10       8.851  13.085   4.476  0.00  0.00    +0.002 C 
BRANCH  28  30
ATOM     30  CG1 ILE A  10      10.982  13.197   3.141  0.00  0.00    +0.002 C 
ATOM     31  CD1 ILE A  10      10.486  14.144   2.071  0.00  0.00    +0.000 C 
ENDBRANCH  28  30
ENDBRANCH  25  28
ENDBRANCH  23  25
ENDBRANCH  20  21
BRANCH  20  32
ATOM     32  CB  PHE A   9      12.517  11.077   8.472  0.00  0.00    +0.055 C 
BRANCH  32  33
ATOM     33  CG  PHE A   9      13.683  11.507   9.313  0.00  0.00    -0.020 A 
ATOM     34  CD2 PHE A   9      13.495  11.967  10.612  0.00  0.00    -0.004 A 
ATOM     35  CE2 PHE A   9      14.578  12.355  11.397  0.00  0.00    -0.000 A 
ATOM     36  CZ  PHE A   9      15.869  12.283  10.883  0.00  0.00    -0.000 A 
ATOM     37  CE1 PHE A   9      16.067  11.824   9.586  0.00  0.00    -0.000 A 
ATOM     38  CD1 PHE A   9      14.975  11.439   8.809  0.00  0.00    -0.004 A 
ENDBRANCH  32  33
ENDBRANCH  20  32
ENDBRANCH  17  20
ENDBRANCH  15  16
ENDBRANCH  13  15
ENDBRANCH  10  11
ENDBRANCH   8  10
ENDBRANCH   5   6
BRANCH   5  39
ATOM     39  CB  ILE A   6      10.576  21.599  10.631  0.00  0.00    +0.027 C 
ATOM     40  CG2 ILE A   6      11.674  22.581  10.261  0.00  0.00    +0.002 C 
BRANCH  39  41
ATOM     41  CG1 ILE A   6       9.436  21.631   9.615  0.00  0.00    +0.002 C 
ATOM     42  CD1 ILE A   6       8.665  22.934   9.613  0.00  0.00    +0.000 C 
ENDBRANCH  39  41
ENDBRANCH   5  39
ENDBRANCH   3   5
BRANCH   1  43
ATOM     43  CA  GLY A   5      13.062  18.208   8.096  0.00  0.00    +0.176 C 
BRANCH  43  45
ATOM     44  C   GLY A   4      14.661  16.394   7.933  0.00  0.00    +0.243 C 
ATOM     45  N   GLY A   5      13.413  16.801   8.136  0.00  0.00    -0.295 N 
ATOM     46  H   GLY A   5      12.672  16.097   8.328  0.00  0.00    +0.150 HD
ATOM     47  O   GLY A   4      15.586  17.160   7.679  0.00  0.00    -0.273 OA
BRANCH  44  48
ATOM     48  CA  GLY A   4      14.895  14.901   8.019  0.00  0.00    +0.176 C 
BRANCH  48  50
ATOM     49  C   ILE A   3      15.090  13.646   5.974  0.00  0.00    +0.241 C 
ATOM     50  N   GLY A   4      15.670  14.393   6.905  0.00  0.00    -0.295 N 
ATOM     51  H   GLY A   4      16.684  14.614   6.835  0.00  0.00    +0.150 HD
ATOM     52  O   ILE A   3      13.900  13.334   6.006  0.00  0.00    -0.273 OA
BRANCH  49  53
ATOM     53  CA  ILE A   3      15.989  13.154   4.855  0.00  0.00    +0.149 C 
BRANCH  53  56
ATOM     54  C   MET A   2      16.479  10.812   4.616  0.00  0.00    +0.241 C 
ATOM     55  O   MET A   2      17.653  10.999   4.913  0.00  0.00    -0.273 OA
ATOM     56  N   ILE A   3      15.594  11.795   4.529  0.00  0.00    -0.297 N 
ATOM     57  H   ILE A   3      14.619  11.594   4.228  0.00  0.00    +0.150 HD
BRANCH  54  58
ATOM     58  CA  MET A   2      15.989   9.413   4.307  0.00  0.00    +0.149 C 
BRANCH  58  60
ATOM     59  C   LYS A   1      16.525   8.482   2.122  0.00  0.00    +0.238 C 
ATOM     60  N   MET A   2      16.912   8.865   3.330  0.00  0.00    -0.297 N 
ATOM     61  H   MET A   2      17.915   8.769   3.588  0.00  0.00    +0.150 HD
ATOM     62  O   LYS A   1      15.358   8.528   1.738  0.00  0.00    -0.274 OA
BRANCH  59  63
ATOM     63  CA  LYS A   1      17.626   7.941   1.228  0.00  0.00    +0.145 C 
BRANCH  63  64
ATOM     64  N   LYS A   1      17.071   6.935   0.343  0.00  0.00    -0.238 NA
ATOM     65  H   LYS A   1      16.057   6.958   0.111  0.00  0.00    +0.142 HD
ENDBRANCH  63  64
BRANCH  63  66
ATOM     66  CB  LYS A   1      18.278   9.077   0.431  0.00  0.00    +0.026 C 
BRANCH  66  67
ATOM     67  CG  LYS A   1      19.083  10.043   1.297  0.00  0.00    -0.000 C 
BRANCH  67  68
ATOM     68  CD  LYS A   1      19.776  11.101   0.454  0.00  0.00    -0.024 C 
BRANCH  68  69
ATOM     69  CE  LYS A   1      20.491  12.139   1.310  0.00  0.00    -0.086 C 
BRANCH  69  70
ATOM     70  NZ  LYS A   1      21.592  11.553   2.115  0.00  0.00    +0.380 N 
ATOM     71  HZ1 LYS A   1      21.206  10.825   2.750  0.00  0.00    -0.089 HD
ATOM     72  HZ2 LYS A   1      22.044  12.301   2.678  0.00  0.00    -0.089 HD
ATOM     73  HZ3 LYS A   1      22.294  11.124   1.479  0.00  0.00    -0.089 HD
ENDBRANCH  69  70
ENDBRANCH  68  69
ENDBRANCH  67  68
ENDBRANCH  66  67
ENDBRANCH  63  66
ENDBRANCH  59  63
ENDBRANCH  58  60
BRANCH  58  74
ATOM     74  CB  MET A   2      16.034   8.596   5.600  0.00  0.00    +0.041 C 
BRANCH  74  75
ATOM     75  CG  MET A   2      15.577   7.167   5.467  0.00  0.00    +0.060 C 
BRANCH  75  76
ATOM     76  SD  MET A   2      13.800   7.080   5.355  0.00  0.00    -0.139 S 
ATOM     77  CE  MET A   2      13.361   7.319   7.099  0.00  0.00    +0.069 C 
ENDBRANCH  75  76
ENDBRANCH  74  75
ENDBRANCH  58  74
ENDBRANCH  54  58
ENDBRANCH  53  56
BRANCH  53  78
ATOM     78  CB  ILE A   3      15.891  14.096   3.631  0.00  0.00    +0.027 C 
ATOM     79  CG2 ILE A   3      16.871  13.639   2.562  0.00  0.00    +0.002 C 
BRANCH  78  80
ATOM     80  CG1 ILE A   3      14.463  14.126   3.086  0.00  0.00    +0.002 C 
ATOM     81  CD1 ILE A   3      14.295  15.022   1.864  0.00  0.00    +0.000 C 
ENDBRANCH  78  80
ENDBRANCH  53  78
ENDBRANCH  49  53
ENDBRANCH  48  50
ENDBRANCH  44  48
ENDBRANCH  43  45
ENDBRANCH   1  43
TORSDOF 36
REMARK  Name = ../refined-set-2016/1d4j/1d4j_pocket.pdb
REMARK  244 active torsions:
REMARK  status: ('A' for Active; 'I' for Inactive)
REMARK    1  A    between atoms: _1  and  _3
REMARK    2  A    between atoms: _3  and  _4
REMARK    3  A    between atoms: _3  and  _6
REMARK    4  A    between atoms: _6  and  _7
REMARK    5  A    between atoms: _7  and  _8
REMARK    6  A    between atoms: _8  and  _9
REMARK    7  A    between atoms: _18  and  _20
REMARK    8  A    between atoms: _20  and  _21
REMARK    9  A    between atoms: _20  and  _23
REMARK   10  A    between atoms: _23  and  _24
REMARK   11  A    between atoms: _27  and  _29
REMARK   12  A    between atoms: _29  and  _30
REMARK   13  A    between atoms: _29  and  _32
REMARK   14  A    between atoms: _32  and  _33
REMARK   15  A    between atoms: _36  and  _38
REMARK   16  A    between atoms: _38  and  _39
REMARK   17  A    between atoms: _38  and  _41
REMARK   18  A    between atoms: _41  and  _42
REMARK   19  A    between atoms: _45  and  _47
REMARK   20  A    between atoms: _47  and  _48
REMARK   21  A    between atoms: _47  and  _50
REMARK   22  A    between atoms: _50  and  _51
REMARK   23  A    between atoms: _54  and  _56
REMARK   24  A    between atoms: _56  and  _57
REMARK   25  A    between atoms: _56  and  _59
REMARK   26  A    between atoms: _59  and  _60
REMARK   27  A    between atoms: _63  and  _65
REMARK   28  A    between atoms: _65  and  _66
REMARK   29  A    between atoms: _68  and  _70
REMARK   30  A    between atoms: _70  and  _71
REMARK   31  A    between atoms: _74  and  _76
REMARK   32  A    between atoms: _76  and  _77
REMARK   33  A    between atoms: _76  and  _79
REMARK   34  A    between atoms: _79  and  _80
REMARK   35  A    between atoms: _83  and  _85
REMARK   36  A    between atoms: _85  and  _86
REMARK   37  A    between atoms: _85  and  _88
REMARK   38  A    between atoms: _88  and  _89
REMARK   39  A    between atoms: _92  and  _94
REMARK   40  A    between atoms: _94  and  _95
REMARK   41  A    between atoms: _94  and  _97
REMARK   42  A    between atoms: _97  and  _98
REMARK   43  A    between atoms: _101  and  _103
REMARK   44  A    between atoms: _103  and  _104
REMARK   45  A    between atoms: _103  and  _106
REMARK   46  A    between atoms: _109  and  _111
REMARK   47  A    between atoms: _111  and  _112
REMARK   48  A    between atoms: _111  and  _114
REMARK   49  A    between atoms: _114  and  _115
REMARK   50  A    between atoms: _115  and  _116
REMARK   51  A    between atoms: _116  and  _117
REMARK   52  A    between atoms: _117  and  _118
REMARK   53  A    between atoms: _122  and  _124
REMARK   54  A    between atoms: _124  and  _125
REMARK   55  A    between atoms: _124  and  _127
REMARK   56  A    between atoms: _127  and  _128
REMARK   57  A    between atoms: _128  and  _129
REMARK   58  A    between atoms: _131  and  _133
REMARK   59  A    between atoms: _133  and  _134
REMARK   60  A    between atoms: _133  and  _136
REMARK   61  A    between atoms: _136  and  _137
REMARK   62  A    between atoms: _140  and  _142
REMARK   63  A    between atoms: _142  and  _143
REMARK   64  A    between atoms: _145  and  _147
REMARK   65  A    between atoms: _147  and  _148
REMARK   66  A    between atoms: _150  and  _152
REMARK   67  A    between atoms: _152  and  _153
REMARK   68  A    between atoms: _152  and  _155
REMARK   69  A    between atoms: _155  and  _156
REMARK   70  A    between atoms: _159  and  _161
REMARK   71  A    between atoms: _161  and  _162
REMARK   72  A    between atoms: _164  and  _166
REMARK   73  A    between atoms: _166  and  _167
REMARK   74  A    between atoms: _169  and  _171
REMARK   75  A    between atoms: _171  and  _172
REMARK   76  A    between atoms: _171  and  _174
REMARK   77  A    between atoms: _174  and  _175
REMARK   78  A    between atoms: _181  and  _183
REMARK   79  A    between atoms: _183  and  _184
REMARK   80  A    between atoms: _183  and  _186
REMARK   81  A    between atoms: _186  and  _187
REMARK   82  A    between atoms: _190  and  _192
REMARK   83  A    between atoms: _192  and  _193
REMARK   84  A    between atoms: _192  and  _195
REMARK   85  A    between atoms: _198  and  _200
REMARK   86  A    between atoms: _200  and  _201
REMARK   87  A    between atoms: _200  and  _203
REMARK   88  A    between atoms: _203  and  _204
REMARK   89  A    between atoms: _207  and  _209
REMARK   90  A    between atoms: _209  and  _210
REMARK   91  A    between atoms: _209  and  _212
REMARK   92  A    between atoms: _212  and  _213
REMARK   93  A    between atoms: _217  and  _218
REMARK   94  A    between atoms: _223  and  _225
REMARK   95  A    between atoms: _225  and  _226
REMARK   96  A    between atoms: _225  and  _228
REMARK   97  A    between atoms: _231  and  _233
REMARK   98  A    between atoms: _233  and  _234
REMARK   99  A    between atoms: _233  and  _236
REMARK  100  A    between atoms: _236  and  _237
REMARK  101  A    between atoms: _242  and  _244
REMARK  102  A    between atoms: _244  and  _245
REMARK  103  A    between atoms: _244  and  _247
REMARK  104  A    between atoms: _247  and  _248
REMARK  105  A    between atoms: _251  and  _253
REMARK  106  A    between atoms: _253  and  _254
REMARK  107  A    between atoms: _253  and  _256
REMARK  108  A    between atoms: _256  and  _257
REMARK  109  A    between atoms: _260  and  _262
REMARK  110  A    between atoms: _262  and  _263
REMARK  111  A    between atoms: _265  and  _267
REMARK  112  A    between atoms: _267  and  _268
REMARK  113  A    between atoms: _267  and  _270
REMARK  114  A    between atoms: _270  and  _271
REMARK  115  A    between atoms: _271  and  _272
REMARK  116  A    between atoms: _272  and  _273
REMARK  117  A    between atoms: _282  and  _284
REMARK  118  A    between atoms: _284  and  _285
REMARK  119  A    between atoms: _284  and  _287
REMARK  120  A    between atoms: _287  and  _288
REMARK  121  A    between atoms: _293  and  _295
REMARK  122  A    between atoms: _295  and  _296
REMARK  123  A    between atoms: _295  and  _298
REMARK  124  A    between atoms: _298  and  _299
REMARK  125  A    between atoms: _299  and  _300
REMARK  126  A    between atoms: _300  and  _301
REMARK  127  A    between atoms: _310  and  _312
REMARK  128  A    between atoms: _312  and  _313
REMARK  129  A    between atoms: _312  and  _315
REMARK  130  A    between atoms: _315  and  _316
REMARK  131  A    between atoms: _319  and  _321
REMARK  132  A    between atoms: _321  and  _322
REMARK  133  A    between atoms: _321  and  _324
REMARK  134  A    between atoms: _324  and  _325
REMARK  135  A    between atoms: _328  and  _330
REMARK  136  A    between atoms: _330  and  _331
REMARK  137  A    between atoms: _330  and  _333
REMARK  138  A    between atoms: _333  and  _334
REMARK  139  A    between atoms: _337  and  _339
REMARK  140  A    between atoms: _339  and  _340
REMARK  141  A    between atoms: _339  and  _342
REMARK  142  A    between atoms: _342  and  _343
REMARK  143  A    between atoms: _346  and  _348
REMARK  144  A    between atoms: _348  and  _349
REMARK  145  A    between atoms: _348  and  _351
REMARK  146  A    between atoms: _351  and  _352
REMARK  147  A    between atoms: _355  and  _357
REMARK  148  A    between atoms: _357  and  _358
REMARK  149  A    between atoms: _360  and  _362
REMARK  150  A    between atoms: _362  and  _363
REMARK  151  A    between atoms: _366  and  _368
REMARK  152  A    between atoms: _368  and  _369
REMARK  153  A    between atoms: _368  and  _371
REMARK  154  A    between atoms: _371  and  _372
REMARK  155  A    between atoms: _375  and  _377
REMARK  156  A    between atoms: _377  and  _378
REMARK  157  A    between atoms: _377  and  _380
REMARK  158  A    between atoms: _380  and  _381
REMARK  159  A    between atoms: _384  and  _386
REMARK  160  A    between atoms: _386  and  _387
REMARK  161  A    between atoms: _386  and  _389
REMARK  162  A    between atoms: _389  and  _390
REMARK  163  A    between atoms: _393  and  _395
REMARK  164  A    between atoms: _395  and  _396
REMARK  165  A    between atoms: _395  and  _398
REMARK  166  A    between atoms: _401  and  _403
REMARK  167  A    between atoms: _403  and  _404
REMARK  168  A    between atoms: _403  and  _406
REMARK  169  A    between atoms: _406  and  _407
REMARK  170  A    between atoms: _410  and  _412
REMARK  171  A    between atoms: _412  and  _413
REMARK  172  A    between atoms: _412  and  _415
REMARK  173  A    between atoms: _415  and  _416
REMARK  174  A    between atoms: _416  and  _417
REMARK  175  A    between atoms: _417  and  _418
REMARK  176  A    between atoms: _418  and  _419
REMARK  177  A    between atoms: _423  and  _425
REMARK  178  A    between atoms: _425  and  _426
REMARK  179  A    between atoms: _425  and  _428
REMARK  180  A    between atoms: _428  and  _429
REMARK  181  A    between atoms: _429  and  _430
REMARK  182  A    between atoms: _432  and  _434
REMARK  183  A    between atoms: _434  and  _435
REMARK  184  A    between atoms: _434  and  _437
REMARK  185  A    between atoms: _437  and  _438
REMARK  186  A    between atoms: _441  and  _443
REMARK  187  A    between atoms: _443  and  _444
REMARK  188  A    between atoms: _446  and  _448
REMARK  189  A    between atoms: _448  and  _449
REMARK  190  A    between atoms: _451  and  _453
REMARK  191  A    between atoms: _453  and  _454
REMARK  192  A    between atoms: _453  and  _456
REMARK  193  A    between atoms: _456  and  _457
REMARK  194  A    between atoms: _460  and  _462
REMARK  195  A    between atoms: _462  and  _463
REMARK  196  A    between atoms: _465  and  _467
REMARK  197  A    between atoms: _467  and  _468
REMARK  198  A    between atoms: _470  and  _472
REMARK  199  A    between atoms: _472  and  _473
REMARK  200  A    between atoms: _472  and  _475
REMARK  201  A    between atoms: _475  and  _476
REMARK  202  A    between atoms: _482  and  _484
REMARK  203  A    between atoms: _484  and  _485
REMARK  204  A    between atoms: _484  and  _487
REMARK  205  A    between atoms: _487  and  _488
REMARK  206  A    between atoms: _491  and  _493
REMARK  207  A    between atoms: _493  and  _494
REMARK  208  A    between atoms: _493  and  _496
REMARK  209  A    between atoms: _499  and  _501
REMARK  210  A    between atoms: _501  and  _502
REMARK  211  A    between atoms: _501  and  _504
REMARK  212  A    between atoms: _504  and  _505
REMARK  213  A    between atoms: _508  and  _510
REMARK  214  A    between atoms: _510  and  _511
REMARK  215  A    between atoms: _510  and  _513
REMARK  216  A    between atoms: _513  and  _514
REMARK  217  A    between atoms: _518  and  _519
REMARK  218  A    between atoms: _524  and  _526
REMARK  219  A    between atoms: _526  and  _527
REMARK  220  A    between atoms: _526  and  _529
REMARK  221  A    between atoms: _532  and  _534
REMARK  222  A    between atoms: _534  and  _535
REMARK  223  A    between atoms: _534  and  _537
REMARK  224  A    between atoms: _537  and  _538
REMARK  225  A    between atoms: _543  and  _545
REMARK  226  A    between atoms: _545  and  _546
REMARK  227  A    between atoms: _545  and  _548
REMARK  228  A    between atoms: _548  and  _549
REMARK  229  A    between atoms: _552  and  _554
REMARK  230  A    between atoms: _554  and  _555
REMARK  231  A    between atoms: _554  and  _557
REMARK  232  A    between atoms: _557  and  _558
REMARK  233  A    between atoms: _561  and  _563
REMARK  234  A    between atoms: _563  and  _564
REMARK  235  A    between atoms: _566  and  _568
REMARK  236  A    between atoms: _568  and  _569
REMARK  237  A    between atoms: _568  and  _571
REMARK  238  A    between atoms: _571  and  _572
REMARK  239  A    between atoms: _572  and  _573
REMARK  240  A    between atoms: _573  and  _574
REMARK  241  A    between atoms: _583  and  _585
REMARK  242  A    between atoms: _585  and  _586
REMARK  243  A    between atoms: _585  and  _588
REMARK  244  A    between atoms: _588  and  _589
REMARK                            x       y       z     vdW  Elec       q    Type
REMARK                         _______ _______ _______ _____ _____    ______ ____
ROOT
ATOM      1  CA  VAL A   1      13.039   9.713  -1.125  0.00  0.00    +0.133 C 
ENDROOT
BRANCH   1   2
ATOM      2  CB  VAL A   1      13.651  11.132  -1.146  0.00  0.00    +0.023 C 
ATOM      3  CG2 VAL A   1      12.738  12.101  -0.402  0.00  0.00    +0.002 C 
ATOM      4  CG1 VAL A   1      15.033  11.113  -0.500  0.00  0.00    +0.002 C 
ENDBRANCH   1   2
BRANCH   1   5
ATOM      5  N   VAL A   1      12.983   9.192   0.223  0.00  0.00    -0.239 NA
ATOM      6  H   VAL A   1      13.860   8.899   0.700  0.00  0.00    +0.142 HD
ENDBRANCH   1   5
BRANCH   1   7
ATOM      7  C   VAL A   1      13.883   8.800  -1.989  0.00  0.00    +0.224 C 
ATOM      8  O   VAL A   1      14.589   7.923  -1.480  0.00  0.00    -0.287 OA
ENDBRANCH   1   7
TORSDOF 3
REMARK  Name = ../refined-set-2016/1d4j/1d4j_pocket.pdb
REMARK  244 active torsions:
REMARK  status: ('A' for Active; 'I' for Inactive)
REMARK    1  A    between atoms: _1  and  _3
REMARK    2  A    between atoms: _3  and  _4
REMARK    3  A    between atoms: _3  and  _6
REMARK    4  A    between atoms: _6  and  _7
REMARK    5  A    between atoms: _7  and  _8
REMARK    6  A    between atoms: _8  and  _9
REMARK    7  A    between atoms: _18  and  _20
REMARK    8  A    between atoms: _20  and  _21
REMARK    9  A    between atoms: _20  and  _23
REMARK   10  A    between atoms: _23  and  _24
REMARK   11  A    between atoms: _27  and  _29
REMARK   12  A    between atoms: _29  and  _30
REMARK   13  A    between atoms: _29  and  _32
REMARK   14  A    between atoms: _32  and  _33
REMARK   15  A    between atoms: _36  and  _38
REMARK   16  A    between atoms: _38  and  _39
REMARK   17  A    between atoms: _38  and  _41
REMARK   18  A    between atoms: _41  and  _42
REMARK   19  A    between atoms: _45  and  _47
REMARK   20  A    between atoms: _47  and  _48
REMARK   21  A    between atoms: _47  and  _50
REMARK   22  A    between atoms: _50  and  _51
REMARK   23  A    between atoms: _54  and  _56
REMARK   24  A    between atoms: _56  and  _57
REMARK   25  A    between atoms: _56  and  _59
REMARK   26  A    between atoms: _59  and  _60
REMARK   27  A    between atoms: _63  and  _65
REMARK   28  A    between atoms: _65  and  _66
REMARK   29  A    between atoms: _68  and  _70
REMARK   30  A    between atoms: _70  and  _71
REMARK   31  A    between atoms: _74  and  _76
REMARK   32  A    between atoms: _76  and  _77
REMARK   33  A    between atoms: _76  and  _79
REMARK   34  A    between atoms: _79  and  _80
REMARK   35  A    between atoms: _83  and  _85
REMARK   36  A    between atoms: _85  and  _86
REMARK   37  A    between atoms: _85  and  _88
REMARK   38  A    between atoms: _88  and  _89
REMARK   39  A    between atoms: _92  and  _94
REMARK   40  A    between atoms: _94  and  _95
REMARK   41  A    between atoms: _94  and  _97
REMARK   42  A    between atoms: _97  and  _98
REMARK   43  A    between atoms: _101  and  _103
REMARK   44  A    between atoms: _103  and  _104
REMARK   45  A    between atoms: _103  and  _106
REMARK   46  A    between atoms: _109  and  _111
REMARK   47  A    between atoms: _111  and  _112
REMARK   48  A    between atoms: _111  and  _114
REMARK   49  A    between atoms: _114  and  _115
REMARK   50  A    between atoms: _115  and  _116
REMARK   51  A    between atoms: _116  and  _117
REMARK   52  A    between atoms: _117  and  _118
REMARK   53  A    between atoms: _122  and  _124
REMARK   54  A    between atoms: _124  and  _125
REMARK   55  A    between atoms: _124  and  _127
REMARK   56  A    between atoms: _127  and  _128
REMARK   57  A    between atoms: _128  and  _129
REMARK   58  A    between atoms: _131  and  _133
REMARK   59  A    between atoms: _133  and  _134
REMARK   60  A    between atoms: _133  and  _136
REMARK   61  A    between atoms: _136  and  _137
REMARK   62  A    between atoms: _140  and  _142
REMARK   63  A    between atoms: _142  and  _143
REMARK   64  A    between atoms: _145  and  _147
REMARK   65  A    between atoms: _147  and  _148
REMARK   66  A    between atoms: _150  and  _152
REMARK   67  A    between atoms: _152  and  _153
REMARK   68  A    between atoms: _152  and  _155
REMARK   69  A    between atoms: _155  and  _156
REMARK   70  A    between atoms: _159  and  _161
REMARK   71  A    between atoms: _161  and  _162
REMARK   72  A    between atoms: _164  and  _166
REMARK   73  A    between atoms: _166  and  _167
REMARK   74  A    between atoms: _169  and  _171
REMARK   75  A    between atoms: _171  and  _172
REMARK   76  A    between atoms: _171  and  _174
REMARK   77  A    between atoms: _174  and  _175
REMARK   78  A    between atoms: _181  and  _183
REMARK   79  A    between atoms: _183  and  _184
REMARK   80  A    between atoms: _183  and  _186
REMARK   81  A    between atoms: _186  and  _187
REMARK   82  A    between atoms: _190  and  _192
REMARK   83  A    between atoms: _192  and  _193
REMARK   84  A    between atoms: _192  and  _195
REMARK   85  A    between atoms: _198  and  _200
REMARK   86  A    between atoms: _200  and  _201
REMARK   87  A    between atoms: _200  and  _203
REMARK   88  A    between atoms: _203  and  _204
REMARK   89  A    between atoms: _207  and  _209
REMARK   90  A    between atoms: _209  and  _210
REMARK   91  A    between atoms: _209  and  _212
REMARK   92  A    between atoms: _212  and  _213
REMARK   93  A    between atoms: _217  and  _218
REMARK   94  A    between atoms: _223  and  _225
REMARK   95  A    between atoms: _225  and  _226
REMARK   96  A    between atoms: _225  and  _228
REMARK   97  A    between atoms: _231  and  _233
REMARK   98  A    between atoms: _233  and  _234
REMARK   99  A    between atoms: _233  and  _236
REMARK  100  A    between atoms: _236  and  _237
REMARK  101  A    between atoms: _242  and  _244
REMARK  102  A    between atoms: _244  and  _245
REMARK  103  A    between atoms: _244  and  _247
REMARK  104  A    between atoms: _247  and  _248
REMARK  105  A    between atoms: _251  and  _253
REMARK  106  A    between atoms: _253  and  _254
REMARK  107  A    between atoms: _253  and  _256
REMARK  108  A    between atoms: _256  and  _257
REMARK  109  A    between atoms: _260  and  _262
REMARK  110  A    between atoms: _262  and  _263
REMARK  111  A    between atoms: _265  and  _267
REMARK  112  A    between atoms: _267  and  _268
REMARK  113  A    between atoms: _267  and  _270
REMARK  114  A    between atoms: _270  and  _271
REMARK  115  A    between atoms: _271  and  _272
REMARK  116  A    between atoms: _272  and  _273
REMARK  117  A    between atoms: _282  and  _284
REMARK  118  A    between atoms: _284  and  _285
REMARK  119  A    between atoms: _284  and  _287
REMARK  120  A    between atoms: _287  and  _288
REMARK  121  A    between atoms: _293  and  _295
REMARK  122  A    between atoms: _295  and  _296
REMARK  123  A    between atoms: _295  and  _298
REMARK  124  A    between atoms: _298  and  _299
REMARK  125  A    between atoms: _299  and  _300
REMARK  126  A    between atoms: _300  and  _301
REMARK  127  A    between atoms: _310  and  _312
REMARK  128  A    between atoms: _312  and  _313
REMARK  129  A    between atoms: _312  and  _315
REMARK  130  A    between atoms: _315  and  _316
REMARK  131  A    between atoms: _319  and  _321
REMARK  132  A    between atoms: _321  and  _322
REMARK  133  A    between atoms: _321  and  _324
REMARK  134  A    between atoms: _324  and  _325
REMARK  135  A    between atoms: _328  and  _330
REMARK  136  A    between atoms: _330  and  _331
REMARK  137  A    between atoms: _330  and  _333
REMARK  138  A    between atoms: _333  and  _334
REMARK  139  A    between atoms: _337  and  _339
REMARK  140  A    between atoms: _339  and  _340
REMARK  141  A    between atoms: _339  and  _342
REMARK  142  A    between atoms: _342  and  _343
REMARK  143  A    between atoms: _346  and  _348
REMARK  144  A    between atoms: _348  and  _349
REMARK  145  A    between atoms: _348  and  _351
REMARK  146  A    between atoms: _351  and  _352
REMARK  147  A    between atoms: _355  and  _357
REMARK  148  A    between atoms: _357  and  _358
REMARK  149  A    between atoms: _360  and  _362
REMARK  150  A    between atoms: _362  and  _363
REMARK  151  A    between atoms: _366  and  _368
REMARK  152  A    between atoms: _368  and  _369
REMARK  153  A    between atoms: _368  and  _371
REMARK  154  A    between atoms: _371  and  _372
REMARK  155  A    between atoms: _375  and  _377
REMARK  156  A    between atoms: _377  and  _378
REMARK  157  A    between atoms: _377  and  _380
REMARK  158  A    between atoms: _380  and  _381
REMARK  159  A    between atoms: _384  and  _386
REMARK  160  A    between atoms: _386  and  _387
REMARK  161  A    between atoms: _386  and  _389
REMARK  162  A    between atoms: _389  and  _390
REMARK  163  A    between atoms: _393  and  _395
REMARK  164  A    between atoms: _395  and  _396
REMARK  165  A    between atoms: _395  and  _398
REMARK  166  A    between atoms: _401  and  _403
REMARK  167  A    between atoms: _403  and  _404
REMARK  168  A    between atoms: _403  and  _406
REMARK  169  A    between atoms: _406  and  _407
REMARK  170  A    between atoms: _410  and  _412
REMARK  171  A    between atoms: _412  and  _413
REMARK  172  A    between atoms: _412  and  _415
REMARK  173  A    between atoms: _415  and  _416
REMARK  174  A    between atoms: _416  and  _417
REMARK  175  A    between atoms: _417  and  _418
REMARK  176  A    between atoms: _418  and  _419
REMARK  177  A    between atoms: _423  and  _425
REMARK  178  A    between atoms: _425  and  _426
REMARK  179  A    between atoms: _425  and  _428
REMARK  180  A    between atoms: _428  and  _429
REMARK  181  A    between atoms: _429  and  _430
REMARK  182  A    between atoms: _432  and  _434
REMARK  183  A    between atoms: _434  and  _435
REMARK  184  A    between atoms: _434  and  _437
REMARK  185  A    between atoms: _437  and  _438
REMARK  186  A    between atoms: _441  and  _443
REMARK  187  A    between atoms: _443  and  _444
REMARK  188  A    between atoms: _446  and  _448
REMARK  189  A    between atoms: _448  and  _449
REMARK  190  A    between atoms: _451  and  _453
REMARK  191  A    between atoms: _453  and  _454
REMARK  192  A    between atoms: _453  and  _456
REMARK  193  A    between atoms: _456  and  _457
REMARK  194  A    between atoms: _460  and  _462
REMARK  195  A    between atoms: _462  and  _463
REMARK  196  A    between atoms: _465  and  _467
REMARK  197  A    between atoms: _467  and  _468
REMARK  198  A    between atoms: _470  and  _472
REMARK  199  A    between atoms: _472  and  _473
REMARK  200  A    between atoms: _472  and  _475
REMARK  201  A    between atoms: _475  and  _476
REMARK  202  A    between atoms: _482  and  _484
REMARK  203  A    between atoms: _484  and  _485
REMARK  204  A    between atoms: _484  and  _487
REMARK  205  A    between atoms: _487  and  _488
REMARK  206  A    between atoms: _491  and  _493
REMARK  207  A    between atoms: _493  and  _494
REMARK  208  A    between atoms: _493  and  _496
REMARK  209  A    between atoms: _499  and  _501
REMARK  210  A    between atoms: _501  and  _502
REMARK  211  A    between atoms: _501  and  _504
REMARK  212  A    between atoms: _504  and  _505
REMARK  213  A    between atoms: _508  and  _510
REMARK  214  A    between atoms: _510  and  _511
REMARK  215  A    between atoms: _510  and  _513
REMARK  216  A    between atoms: _513  and  _514
REMARK  217  A    between atoms: _518  and  _519
REMARK  218  A    between atoms: _524  and  _526
REMARK  219  A    between atoms: _526  and  _527
REMARK  220  A    between atoms: _526  and  _529
REMARK  221  A    between atoms: _532  and  _534
REMARK  222  A    between atoms: _534  and  _535
REMARK  223  A    between atoms: _534  and  _537
REMARK  224  A    between atoms: _537  and  _538
REMARK  225  A    between atoms: _543  and  _545
REMARK  226  A    between atoms: _545  and  _546
REMARK  227  A    between atoms: _545  and  _548
REMARK  228  A    between atoms: _548  and  _549
REMARK  229  A    between atoms: _552  and  _554
REMARK  230  A    between atoms: _554  and  _555
REMARK  231  A    between atoms: _554  and  _557
REMARK  232  A    between atoms: _557  and  _558
REMARK  233  A    between atoms: _561  and  _563
REMARK  234  A    between atoms: _563  and  _564
REMARK  235  A    between atoms: _566  and  _568
REMARK  236  A    between atoms: _568  and  _569
REMARK  237  A    between atoms: _568  and  _571
REMARK  238  A    between atoms: _571  and  _572
REMARK  239  A    between atoms: _572  and  _573
REMARK  240  A    between atoms: _573  and  _574
REMARK  241  A    between atoms: _583  and  _585
REMARK  242  A    between atoms: _585  and  _586
REMARK  243  A    between atoms: _585  and  _588
REMARK  244  A    between atoms: _588  and  _589
REMARK                            x       y       z     vdW  Elec       q    Type
REMARK                         _______ _______ _______ _____ _____    ______ ____
ROOT
ATOM      1  CA  LEU A   1      16.119  13.435  -4.668  0.00  0.00    +0.133 C 
ENDROOT
BRANCH   1   2
ATOM      2  N   LEU A   1      16.953  14.337  -5.445  0.00  0.00    -0.239 NA
ATOM      3  H   LEU A   1      16.995  15.341  -5.178  0.00  0.00    +0.142 HD
ENDBRANCH   1   2
BRANCH   1   4
ATOM      4  C   LEU A   1      14.680  13.667  -5.101  0.00  0.00    +0.224 C 
ATOM      5  O   LEU A   1      14.291  14.797  -5.399  0.00  0.00    -0.287 OA
ENDBRANCH   1   4
BRANCH   1   6
ATOM      6  CB  LEU A   1      16.264  13.737  -3.178  0.00  0.00    +0.025 C 
BRANCH   6   7
ATOM      7  CG  LEU A   1      17.702  13.735  -2.667  0.00  0.00    +0.002 C 
ATOM      8  CD2 LEU A   1      17.726  14.141  -1.193  0.00  0.00    +0.000 C 
ATOM      9  CD1 LEU A   1      18.313  12.356  -2.880  0.00  0.00    +0.000 C 
ENDBRANCH   6   7
ENDBRANCH   1   6
TORSDOF 4
REMARK  Name = ../refined-set-2016/1d4j/1d4j_pocket.pdb
REMARK  244 active torsions:
REMARK  status: ('A' for Active; 'I' for Inactive)
REMARK    1  A    between atoms: _1  and  _3
REMARK    2  A    between atoms: _3  and  _4
REMARK    3  A    between atoms: _3  and  _6
REMARK    4  A    between atoms: _6  and  _7
REMARK    5  A    between atoms: _7  and  _8
REMARK    6  A    between atoms: _8  and  _9
REMARK    7  A    between atoms: _18  and  _20
REMARK    8  A    between atoms: _20  and  _21
REMARK    9  A    between atoms: _20  and  _23
REMARK   10  A    between atoms: _23  and  _24
REMARK   11  A    between atoms: _27  and  _29
REMARK   12  A    between atoms: _29  and  _30
REMARK   13  A    between atoms: _29  and  _32
REMARK   14  A    between atoms: _32  and  _33
REMARK   15  A    between atoms: _36  and  _38
REMARK   16  A    between atoms: _38  and  _39
REMARK   17  A    between atoms: _38  and  _41
REMARK   18  A    between atoms: _41  and  _42
REMARK   19  A    between atoms: _45  and  _47
REMARK   20  A    between atoms: _47  and  _48
REMARK   21  A    between atoms: _47  and  _50
REMARK   22  A    between atoms: _50  and  _51
REMARK   23  A    between atoms: _54  and  _56
REMARK   24  A    between atoms: _56  and  _57
REMARK   25  A    between atoms: _56  and  _59
REMARK   26  A    between atoms: _59  and  _60
REMARK   27  A    between atoms: _63  and  _65
REMARK   28  A    between atoms: _65  and  _66
REMARK   29  A    between atoms: _68  and  _70
REMARK   30  A    between atoms: _70  and  _71
REMARK   31  A    between atoms: _74  and  _76
REMARK   32  A    between atoms: _76  and  _77
REMARK   33  A    between atoms: _76  and  _79
REMARK   34  A    between atoms: _79  and  _80
REMARK   35  A    between atoms: _83  and  _85
REMARK   36  A    between atoms: _85  and  _86
REMARK   37  A    between atoms: _85  and  _88
REMARK   38  A    between atoms: _88  and  _89
REMARK   39  A    between atoms: _92  and  _94
REMARK   40  A    between atoms: _94  and  _95
REMARK   41  A    between atoms: _94  and  _97
REMARK   42  A    between atoms: _97  and  _98
REMARK   43  A    between atoms: _101  and  _103
REMARK   44  A    between atoms: _103  and  _104
REMARK   45  A    between atoms: _103  and  _106
REMARK   46  A    between atoms: _109  and  _111
REMARK   47  A    between atoms: _111  and  _112
REMARK   48  A    between atoms: _111  and  _114
REMARK   49  A    between atoms: _114  and  _115
REMARK   50  A    between atoms: _115  and  _116
REMARK   51  A    between atoms: _116  and  _117
REMARK   52  A    between atoms: _117  and  _118
REMARK   53  A    between atoms: _122  and  _124
REMARK   54  A    between atoms: _124  and  _125
REMARK   55  A    between atoms: _124  and  _127
REMARK   56  A    between atoms: _127  and  _128
REMARK   57  A    between atoms: _128  and  _129
REMARK   58  A    between atoms: _131  and  _133
REMARK   59  A    between atoms: _133  and  _134
REMARK   60  A    between atoms: _133  and  _136
REMARK   61  A    between atoms: _136  and  _137
REMARK   62  A    between atoms: _140  and  _142
REMARK   63  A    between atoms: _142  and  _143
REMARK   64  A    between atoms: _145  and  _147
REMARK   65  A    between atoms: _147  and  _148
REMARK   66  A    between atoms: _150  and  _152
REMARK   67  A    between atoms: _152  and  _153
REMARK   68  A    between atoms: _152  and  _155
REMARK   69  A    between atoms: _155  and  _156
REMARK   70  A    between atoms: _159  and  _161
REMARK   71  A    between atoms: _161  and  _162
REMARK   72  A    between atoms: _164  and  _166
REMARK   73  A    between atoms: _166  and  _167
REMARK   74  A    between atoms: _169  and  _171
REMARK   75  A    between atoms: _171  and  _172
REMARK   76  A    between atoms: _171  and  _174
REMARK   77  A    between atoms: _174  and  _175
REMARK   78  A    between atoms: _181  and  _183
REMARK   79  A    between atoms: _183  and  _184
REMARK   80  A    between atoms: _183  and  _186
REMARK   81  A    between atoms: _186  and  _187
REMARK   82  A    between atoms: _190  and  _192
REMARK   83  A    between atoms: _192  and  _193
REMARK   84  A    between atoms: _192  and  _195
REMARK   85  A    between atoms: _198  and  _200
REMARK   86  A    between atoms: _200  and  _201
REMARK   87  A    between atoms: _200  and  _203
REMARK   88  A    between atoms: _203  and  _204
REMARK   89  A    between atoms: _207  and  _209
REMARK   90  A    between atoms: _209  and  _210
REMARK   91  A    between atoms: _209  and  _212
REMARK   92  A    between atoms: _212  and  _213
REMARK   93  A    between atoms: _217  and  _218
REMARK   94  A    between atoms: _223  and  _225
REMARK   95  A    between atoms: _225  and  _226
REMARK   96  A    between atoms: _225  and  _228
REMARK   97  A    between atoms: _231  and  _233
REMARK   98  A    between atoms: _233  and  _234
REMARK   99  A    between atoms: _233  and  _236
REMARK  100  A    between atoms: _236  and  _237
REMARK  101  A    between atoms: _242  and  _244
REMARK  102  A    between atoms: _244  and  _245
REMARK  103  A    between atoms: _244  and  _247
REMARK  104  A    between atoms: _247  and  _248
REMARK  105  A    between atoms: _251  and  _253
REMARK  106  A    between atoms: _253  and  _254
REMARK  107  A    between atoms: _253  and  _256
REMARK  108  A    between atoms: _256  and  _257
REMARK  109  A    between atoms: _260  and  _262
REMARK  110  A    between atoms: _262  and  _263
REMARK  111  A    between atoms: _265  and  _267
REMARK  112  A    between atoms: _267  and  _268
REMARK  113  A    between atoms: _267  and  _270
REMARK  114  A    between atoms: _270  and  _271
REMARK  115  A    between atoms: _271  and  _272
REMARK  116  A    between atoms: _272  and  _273
REMARK  117  A    between atoms: _282  and  _284
REMARK  118  A    between atoms: _284  and  _285
REMARK  119  A    between atoms: _284  and  _287
REMARK  120  A    between atoms: _287  and  _288
REMARK  121  A    between atoms: _293  and  _295
REMARK  122  A    between atoms: _295  and  _296
REMARK  123  A    between atoms: _295  and  _298
REMARK  124  A    between atoms: _298  and  _299
REMARK  125  A    between atoms: _299  and  _300
REMARK  126  A    between atoms: _300  and  _301
REMARK  127  A    between atoms: _310  and  _312
REMARK  128  A    between atoms: _312  and  _313
REMARK  129  A    between atoms: _312  and  _315
REMARK  130  A    between atoms: _315  and  _316
REMARK  131  A    between atoms: _319  and  _321
REMARK  132  A    between atoms: _321  and  _322
REMARK  133  A    between atoms: _321  and  _324
REMARK  134  A    between atoms: _324  and  _325
REMARK  135  A    between atoms: _328  and  _330
REMARK  136  A    between atoms: _330  and  _331
REMARK  137  A    between atoms: _330  and  _333
REMARK  138  A    between atoms: _333  and  _334
REMARK  139  A    between atoms: _337  and  _339
REMARK  140  A    between atoms: _339  and  _340
REMARK  141  A    between atoms: _339  and  _342
REMARK  142  A    between atoms: _342  and  _343
REMARK  143  A    between atoms: _346  and  _348
REMARK  144  A    between atoms: _348  and  _349
REMARK  145  A    between atoms: _348  and  _351
REMARK  146  A    between atoms: _351  and  _352
REMARK  147  A    between atoms: _355  and  _357
REMARK  148  A    between atoms: _357  and  _358
REMARK  149  A    between atoms: _360  and  _362
REMARK  150  A    between atoms: _362  and  _363
REMARK  151  A    between atoms: _366  and  _368
REMARK  152  A    between atoms: _368  and  _369
REMARK  153  A    between atoms: _368  and  _371
REMARK  154  A    between atoms: _371  and  _372
REMARK  155  A    between atoms: _375  and  _377
REMARK  156  A    between atoms: _377  and  _378
REMARK  157  A    between atoms: _377  and  _380
REMARK  158  A    between atoms: _380  and  _381
REMARK  159  A    between atoms: _384  and  _386
REMARK  160  A    between atoms: _386  and  _387
REMARK  161  A    between atoms: _386  and  _389
REMARK  162  A    between atoms: _389  and  _390
REMARK  163  A    between atoms: _393  and  _395
REMARK  164  A    between atoms: _395  and  _396
REMARK  165  A    between atoms: _395  and  _398
REMARK  166  A    between atoms: _401  and  _403
REMARK  167  A    between atoms: _403  and  _404
REMARK  168  A    between atoms: _403  and  _406
REMARK  169  A    between atoms: _406  and  _407
REMARK  170  A    between atoms: _410  and  _412
REMARK  171  A    between atoms: _412  and  _413
REMARK  172  A    between atoms: _412  and  _415
REMARK  173  A    between atoms: _415  and  _416
REMARK  174  A    between atoms: _416  and  _417
REMARK  175  A    between atoms: _417  and  _418
REMARK  176  A    between atoms: _418  and  _419
REMARK  177  A    between atoms: _423  and  _425
REMARK  178  A    between atoms: _425  and  _426
REMARK  179  A    between atoms: _425  and  _428
REMARK  180  A    between atoms: _428  and  _429
REMARK  181  A    between atoms: _429  and  _430
REMARK  182  A    between atoms: _432  and  _434
REMARK  183  A    between atoms: _434  and  _435
REMARK  184  A    between atoms: _434  and  _437
REMARK  185  A    between atoms: _437  and  _438
REMARK  186  A    between atoms: _441  and  _443
REMARK  187  A    between atoms: _443  and  _444
REMARK  188  A    between atoms: _446  and  _448
REMARK  189  A    between atoms: _448  and  _449
REMARK  190  A    between atoms: _451  and  _453
REMARK  191  A    between atoms: _453  and  _454
REMARK  192  A    between atoms: _453  and  _456
REMARK  193  A    between atoms: _456  and  _457
REMARK  194  A    between atoms: _460  and  _462
REMARK  195  A    between atoms: _462  and  _463
REMARK  196  A    between atoms: _465  and  _467
REMARK  197  A    between atoms: _467  and  _468
REMARK  198  A    between atoms: _470  and  _472
REMARK  199  A    between atoms: _472  and  _473
REMARK  200  A    between atoms: _472  and  _475
REMARK  201  A    between atoms: _475  and  _476
REMARK  202  A    between atoms: _482  and  _484
REMARK  203  A    between atoms: _484  and  _485
REMARK  204  A    between atoms: _484  and  _487
REMARK  205  A    between atoms: _487  and  _488
REMARK  206  A    between atoms: _491  and  _493
REMARK  207  A    between atoms: _493  and  _494
REMARK  208  A    between atoms: _493  and  _496
REMARK  209  A    between atoms: _499  and  _501
REMARK  210  A    between atoms: _501  and  _502
REMARK  211  A    between atoms: _501  and  _504
REMARK  212  A    between atoms: _504  and  _505
REMARK  213  A    between atoms: _508  and  _510
REMARK  214  A    between atoms: _510  and  _511
REMARK  215  A    between atoms: _510  and  _513
REMARK  216  A    between atoms: _513  and  _514
REMARK  217  A    between atoms: _518  and  _519
REMARK  218  A    between atoms: _524  and  _526
REMARK  219  A    between atoms: _526  and  _527
REMARK  220  A    between atoms: _526  and  _529
REMARK  221  A    between atoms: _532  and  _534
REMARK  222  A    between atoms: _534  and  _535
REMARK  223  A    between atoms: _534  and  _537
REMARK  224  A    between atoms: _537  and  _538
REMARK  225  A    between atoms: _543  and  _545
REMARK  226  A    between atoms: _545  and  _546
REMARK  227  A    between atoms: _545  and  _548
REMARK  228  A    between atoms: _548  and  _549
REMARK  229  A    between atoms: _552  and  _554
REMARK  230  A    between atoms: _554  and  _555
REMARK  231  A    between atoms: _554  and  _557
REMARK  232  A    between atoms: _557  and  _558
REMARK  233  A    between atoms: _561  and  _563
REMARK  234  A    between atoms: _563  and  _564
REMARK  235  A    between atoms: _566  and  _568
REMARK  236  A    between atoms: _568  and  _569
REMARK  237  A    between atoms: _568  and  _571
REMARK  238  A    between atoms: _571  and  _572
REMARK  239  A    between atoms: _572  and  _573
REMARK  240  A    between atoms: _573  and  _574
REMARK  241  A    between atoms: _583  and  _585
REMARK  242  A    between atoms: _585  and  _586
REMARK  243  A    between atoms: _585  and  _588
REMARK  244  A    between atoms: _588  and  _589
REMARK                            x       y       z     vdW  Elec       q    Type
REMARK                         _______ _______ _______ _____ _____    ______ ____
ROOT
ATOM      1  C   ILE A   5      15.048  22.363  -3.896  0.00  0.00    +0.241 C 
ATOM      2  O   ILE A   5      15.493  21.239  -4.125  0.00  0.00    -0.273 OA
ATOM      3  N   ILE A   6      15.720  23.480  -4.157  0.00  0.00    -0.297 N 
ATOM      4  H   ILE A   6      15.269  24.400  -3.977  0.00  0.00    +0.150 HD
ENDROOT
BRANCH   3   5
ATOM      5  CA  ILE A   6      17.075  23.442  -4.690  0.00  0.00    +0.149 C 
BRANCH   5   6
ATOM      6  C   ILE A   6      17.959  23.646  -3.466  0.00  0.00    +0.241 C 
ATOM      7  O   ILE A   6      17.961  24.728  -2.873  0.00  0.00    -0.273 OA
ATOM      8  N   GLY A   7      18.694  22.599  -3.093  0.00  0.00    -0.295 N 
ATOM      9  H   GLY A   7      18.659  21.725  -3.655  0.00  0.00    +0.150 HD
BRANCH   8  10
ATOM     10  CA  GLY A   7      19.543  22.656  -1.915  0.00  0.00    +0.176 C 
BRANCH  10  11
ATOM     11  C   GLY A   7      20.988  23.039  -2.153  0.00  0.00    +0.243 C 
ATOM     12  N   ARG A   8      21.767  23.041  -1.078  0.00  0.00    -0.297 N 
ATOM     13  H   ARG A   8      21.370  22.752  -0.161  0.00  0.00    +0.150 HD
ATOM     14  O   GLY A   7      21.400  23.319  -3.283  0.00  0.00    -0.273 OA
BRANCH  12  15
ATOM     15  CA  ARG A   8      23.166  23.439  -1.156  0.00  0.00    +0.149 C 
BRANCH  15  16
ATOM     16  C   ARG A   8      24.015  22.672  -2.158  0.00  0.00    +0.241 C 
ATOM     17  N   ASN A   9      23.694  21.406  -2.392  0.00  0.00    -0.298 N 
ATOM     18  H   ASN A   9      22.881  20.971  -1.911  0.00  0.00    +0.150 HD
ATOM     19  O   ARG A   8      24.958  23.230  -2.725  0.00  0.00    -0.273 OA
BRANCH  17  20
ATOM     20  CA  ASN A   9      24.496  20.634  -3.333  0.00  0.00    +0.146 C 
BRANCH  20  21
ATOM     21  C   ASN A   9      24.499  21.271  -4.725  0.00  0.00    +0.227 C 
ATOM     22  O   ASN A   9      25.515  21.240  -5.415  0.00  0.00    -0.286 OA
ENDBRANCH  20  21
BRANCH  20  23
ATOM     23  CB  ASN A   9      24.025  19.171  -3.389  0.00  0.00    +0.112 C 
BRANCH  23  24
ATOM     24  CG  ASN A   9      22.719  18.995  -4.137  0.00  0.00    +0.222 C 
ATOM     25  OD1 ASN A   9      21.697  19.595  -3.791  0.00  0.00    -0.275 OA
ATOM     26  ND2 ASN A   9      22.747  18.158  -5.171  0.00  0.00    -0.329 N 
ATOM     27 HD21 ASN A   9      23.632  17.675  -5.425  0.00  0.00    +0.145 HD
ATOM     28 HD22 ASN A   9      21.884  17.987  -5.725  0.00  0.00    +0.145 HD
ENDBRANCH  23  24
ENDBRANCH  20  23
ENDBRANCH  17  20
ENDBRANCH  15  16
BRANCH  15  29
ATOM     29  CB  ARG A   8      23.812  23.370   0.235  0.00  0.00    +0.033 C 
BRANCH  29  30
ATOM     30  CG  ARG A   8      23.256  24.413   1.207  0.00  0.00    +0.045 C 
BRANCH  30  31
ATOM     31  CD  ARG A   8      24.080  24.519   2.507  0.00  0.00    +0.174 C 
BRANCH  31  32
ATOM     32  NE  ARG A   8      24.089  23.262   3.254  0.00  0.00    -0.265 N 
ATOM     33  HE  ARG A   8      23.265  23.043   3.849  0.00  0.00    +0.259 HD
ATOM     34  CZ  ARG A   8      25.085  22.381   3.220  0.00  0.00    +0.342 C 
ATOM     35  NH2 ARG A   8      24.993  21.254   3.910  0.00  0.00    -0.292 N 
ATOM     36 HH21 ARG A   8      24.143  21.059   4.477  0.00  0.00    +0.255 HD
ATOM     37 HH22 ARG A   8      25.771  20.564   3.885  0.00  0.00    +0.255 HD
ATOM     38  NH1 ARG A   8      26.167  22.616   2.483  0.00  0.00    -0.292 N 
ATOM     39 HH11 ARG A   8      26.942  21.923   2.461  0.00  0.00    +0.255 HD
ATOM     40 HH12 ARG A   8      26.238  23.493   1.929  0.00  0.00    +0.255 HD
ENDBRANCH  31  32
ENDBRANCH  30  31
ENDBRANCH  29  30
ENDBRANCH  15  29
ENDBRANCH  12  15
ENDBRANCH  10  11
ENDBRANCH   8  10
ENDBRANCH   5   6
BRANCH   5  41
ATOM     41  CB  ILE A   6      17.336  24.579  -5.690  0.00  0.00    +0.027 C 
ATOM     42  CG2 ILE A   6      18.773  24.500  -6.187  0.00  0.00    +0.002 C 
BRANCH  41  43
ATOM     43  CG1 ILE A   6      16.343  24.490  -6.856  0.00  0.00    +0.002 C 
ATOM     44  CD1 ILE A   6      16.357  23.164  -7.593  0.00  0.00    +0.000 C 
ENDBRANCH  41  43
ENDBRANCH   5  41
ENDBRANCH   3   5
BRANCH   1  45
ATOM     45  CA  ILE A   5      13.668  22.540  -3.274  0.00  0.00    +0.149 C 
BRANCH  45  47
ATOM     46  C   ASN A   4      11.559  22.566  -4.499  0.00  0.00    +0.241 C 
ATOM     47  N   ILE A   5      12.600  21.895  -4.021  0.00  0.00    -0.297 N 
ATOM     48  H   ILE A   5      12.654  20.870  -4.187  0.00  0.00    +0.150 HD
ATOM     49  O   ASN A   4      11.432  23.786  -4.397  0.00  0.00    -0.273 OA
BRANCH  46  50
ATOM     50  CA  ASN A   4      10.499  21.730  -5.201  0.00  0.00    +0.158 C 
BRANCH  50  53
ATOM     51  C   VAL A   3       8.920  21.633  -3.359  0.00  0.00    +0.241 C 
ATOM     52  O   VAL A   3       9.672  20.911  -2.696  0.00  0.00    -0.273 OA
ATOM     53  N   ASN A   4       9.219  22.061  -4.584  0.00  0.00    -0.297 N 
ATOM     54  H   ASN A   4       8.531  22.639  -5.108  0.00  0.00    +0.150 HD
BRANCH  51  55
ATOM     55  CA  VAL A   3       7.578  22.069  -2.792  0.00  0.00    +0.149 C 
BRANCH  55  57
ATOM     56  C   PRO A   2       5.918  20.946  -1.404  0.00  0.00    +0.241 C 
ATOM     57  N   VAL A   3       7.192  21.176  -1.708  0.00  0.00    -0.297 N 
ATOM     58  H   VAL A   3       7.935  20.704  -1.155  0.00  0.00    +0.150 HD
ATOM     59  O   PRO A   2       4.980  21.457  -2.015  0.00  0.00    -0.273 OA
BRANCH  56  65
ATOM     60  C   THR A   1       7.023  18.074  -0.929  0.00  0.00    +0.244 C 
ATOM     61  N   PRO A   2       6.741  19.026  -0.032  0.00  0.00    -0.272 N 
ATOM     62  CD  PRO A   2       7.271  19.129   1.337  0.00  0.00    +0.094 C 
ATOM     63  CG  PRO A   2       6.111  19.747   2.064  0.00  0.00    +0.024 C 
ATOM     64  CB  PRO A   2       5.625  20.750   1.092  0.00  0.00    +0.031 C 
ATOM     65  CA  PRO A   2       5.666  20.002  -0.237  0.00  0.00    +0.152 C 
ATOM     66  O   THR A   1       6.387  17.958  -1.972  0.00  0.00    -0.273 OA
BRANCH  60  67
ATOM     67  CA  THR A   1       8.162  17.117  -0.601  0.00  0.00    +0.172 C 
BRANCH  67  68
ATOM     68  CB  THR A   1       9.463  17.658  -1.216  0.00  0.00    +0.135 C 
ATOM     69  CG2 THR A   1       9.361  17.699  -2.733  0.00  0.00    +0.034 C 
BRANCH  68  70
ATOM     70  OG1 THR A   1       9.702  18.978  -0.719  0.00  0.00    -0.383 OA
ATOM     71  HG1 THR A   1       8.945  19.565  -0.969  0.00  0.00    +0.210 HD
ENDBRANCH  68  70
ENDBRANCH  67  68
BRANCH  67  72
ATOM     72  N   THR A   1       7.815  15.815  -1.139  0.00  0.00    -0.236 NA
ATOM     73  H   THR A   1       8.134  15.547  -2.092  0.00  0.00    +0.142 HD
ENDBRANCH  67  72
ENDBRANCH  60  67
ENDBRANCH  56  65
ENDBRANCH  55  57
BRANCH  55  74
ATOM     74  CB  VAL A   3       7.731  23.527  -2.293  0.00  0.00    +0.027 C 
ATOM     75  CG2 VAL A   3       8.706  23.567  -1.128  0.00  0.00    +0.002 C 
ATOM     76  CG1 VAL A   3       6.382  24.094  -1.872  0.00  0.00    +0.002 C 
ENDBRANCH  55  74
ENDBRANCH  51  55
ENDBRANCH  50  53
BRANCH  50  77
ATOM     77  CB  ASN A   4      10.486  22.044  -6.700  0.00  0.00    +0.114 C 
BRANCH  77  78
ATOM     78  CG  ASN A   4       9.563  21.125  -7.476  0.00  0.00    +0.222 C 
ATOM     79  OD1 ASN A   4       9.503  19.929  -7.206  0.00  0.00    -0.275 OA
ATOM     80  ND2 ASN A   4       8.848  21.678  -8.452  0.00  0.00    -0.329 N 
ATOM     81 HD21 ASN A   4       8.931  22.697  -8.645  0.00  0.00    +0.145 HD
ATOM     82 HD22 ASN A   4       8.206  21.092  -9.022  0.00  0.00    +0.145 HD
ENDBRANCH  77  78
ENDBRANCH  50  77
ENDBRANCH  46  50
ENDBRANCH  45  47
BRANCH  45  83
ATOM     83  CB  ILE A   5      13.729  21.964  -1.834  0.00  0.00    +0.027 C 
ATOM     84  CG2 ILE A   5      14.981  22.446  -1.112  0.00  0.00    +0.002 C 
BRANCH  83  85
ATOM     85  CG1 ILE A   5      12.469  22.357  -1.061  0.00  0.00    +0.002 C 
ATOM     86  CD1 ILE A   5      12.319  21.603   0.250  0.00  0.00    +0.000 C 
ENDBRANCH  83  85
ENDBRANCH  45  83
ENDBRANCH   1  45
TORSDOF 32
REMARK  Name = ../refined-set-2016/1d4j/1d4j_pocket.pdb
REMARK  244 active torsions:
REMARK  status: ('A' for Active; 'I' for Inactive)
REMARK    1  A    between atoms: _1  and  _3
REMARK    2  A    between atoms: _3  and  _4
REMARK    3  A    between atoms: _3  and  _6
REMARK    4  A    between atoms: _6  and  _7
REMARK    5  A    between atoms: _7  and  _8
REMARK    6  A    between atoms: _8  and  _9
REMARK    7  A    between atoms: _18  and  _20
REMARK    8  A    between atoms: _20  and  _21
REMARK    9  A    between atoms: _20  and  _23
REMARK   10  A    between atoms: _23  and  _24
REMARK   11  A    between atoms: _27  and  _29
REMARK   12  A    between atoms: _29  and  _30
REMARK   13  A    between atoms: _29  and  _32
REMARK   14  A    between atoms: _32  and  _33
REMARK   15  A    between atoms: _36  and  _38
REMARK   16  A    between atoms: _38  and  _39
REMARK   17  A    between atoms: _38  and  _41
REMARK   18  A    between atoms: _41  and  _42
REMARK   19  A    between atoms: _45  and  _47
REMARK   20  A    between atoms: _47  and  _48
REMARK   21  A    between atoms: _47  and  _50
REMARK   22  A    between atoms: _50  and  _51
REMARK   23  A    between atoms: _54  and  _56
REMARK   24  A    between atoms: _56  and  _57
REMARK   25  A    between atoms: _56  and  _59
REMARK   26  A    between atoms: _59  and  _60
REMARK   27  A    between atoms: _63  and  _65
REMARK   28  A    between atoms: _65  and  _66
REMARK   29  A    between atoms: _68  and  _70
REMARK   30  A    between atoms: _70  and  _71
REMARK   31  A    between atoms: _74  and  _76
REMARK   32  A    between atoms: _76  and  _77
REMARK   33  A    between atoms: _76  and  _79
REMARK   34  A    between atoms: _79  and  _80
REMARK   35  A    between atoms: _83  and  _85
REMARK   36  A    between atoms: _85  and  _86
REMARK   37  A    between atoms: _85  and  _88
REMARK   38  A    between atoms: _88  and  _89
REMARK   39  A    between atoms: _92  and  _94
REMARK   40  A    between atoms: _94  and  _95
REMARK   41  A    between atoms: _94  and  _97
REMARK   42  A    between atoms: _97  and  _98
REMARK   43  A    between atoms: _101  and  _103
REMARK   44  A    between atoms: _103  and  _104
REMARK   45  A    between atoms: _103  and  _106
REMARK   46  A    between atoms: _109  and  _111
REMARK   47  A    between atoms: _111  and  _112
REMARK   48  A    between atoms: _111  and  _114
REMARK   49  A    between atoms: _114  and  _115
REMARK   50  A    between atoms: _115  and  _116
REMARK   51  A    between atoms: _116  and  _117
REMARK   52  A    between atoms: _117  and  _118
REMARK   53  A    between atoms: _122  and  _124
REMARK   54  A    between atoms: _124  and  _125
REMARK   55  A    between atoms: _124  and  _127
REMARK   56  A    between atoms: _127  and  _128
REMARK   57  A    between atoms: _128  and  _129
REMARK   58  A    between atoms: _131  and  _133
REMARK   59  A    between atoms: _133  and  _134
REMARK   60  A    between atoms: _133  and  _136
REMARK   61  A    between atoms: _136  and  _137
REMARK   62  A    between atoms: _140  and  _142
REMARK   63  A    between atoms: _142  and  _143
REMARK   64  A    between atoms: _145  and  _147
REMARK   65  A    between atoms: _147  and  _148
REMARK   66  A    between atoms: _150  and  _152
REMARK   67  A    between atoms: _152  and  _153
REMARK   68  A    between atoms: _152  and  _155
REMARK   69  A    between atoms: _155  and  _156
REMARK   70  A    between atoms: _159  and  _161
REMARK   71  A    between atoms: _161  and  _162
REMARK   72  A    between atoms: _164  and  _166
REMARK   73  A    between atoms: _166  and  _167
REMARK   74  A    between atoms: _169  and  _171
REMARK   75  A    between atoms: _171  and  _172
REMARK   76  A    between atoms: _171  and  _174
REMARK   77  A    between atoms: _174  and  _175
REMARK   78  A    between atoms: _181  and  _183
REMARK   79  A    between atoms: _183  and  _184
REMARK   80  A    between atoms: _183  and  _186
REMARK   81  A    between atoms: _186  and  _187
REMARK   82  A    between atoms: _190  and  _192
REMARK   83  A    between atoms: _192  and  _193
REMARK   84  A    between atoms: _192  and  _195
REMARK   85  A    between atoms: _198  and  _200
REMARK   86  A    between atoms: _200  and  _201
REMARK   87  A    between atoms: _200  and  _203
REMARK   88  A    between atoms: _203  and  _204
REMARK   89  A    between atoms: _207  and  _209
REMARK   90  A    between atoms: _209  and  _210
REMARK   91  A    between atoms: _209  and  _212
REMARK   92  A    between atoms: _212  and  _213
REMARK   93  A    between atoms: _217  and  _218
REMARK   94  A    between atoms: _223  and  _225
REMARK   95  A    between atoms: _225  and  _226
REMARK   96  A    between atoms: _225  and  _228
REMARK   97  A    between atoms: _231  and  _233
REMARK   98  A    between atoms: _233  and  _234
REMARK   99  A    between atoms: _233  and  _236
REMARK  100  A    between atoms: _236  and  _237
REMARK  101  A    between atoms: _242  and  _244
REMARK  102  A    between atoms: _244  and  _245
REMARK  103  A    between atoms: _244  and  _247
REMARK  104  A    between atoms: _247  and  _248
REMARK  105  A    between atoms: _251  and  _253
REMARK  106  A    between atoms: _253  and  _254
REMARK  107  A    between atoms: _253  and  _256
REMARK  108  A    between atoms: _256  and  _257
REMARK  109  A    between atoms: _260  and  _262
REMARK  110  A    between atoms: _262  and  _263
REMARK  111  A    between atoms: _265  and  _267
REMARK  112  A    between atoms: _267  and  _268
REMARK  113  A    between atoms: _267  and  _270
REMARK  114  A    between atoms: _270  and  _271
REMARK  115  A    between atoms: _271  and  _272
REMARK  116  A    between atoms: _272  and  _273
REMARK  117  A    between atoms: _282  and  _284
REMARK  118  A    between atoms: _284  and  _285
REMARK  119  A    between atoms: _284  and  _287
REMARK  120  A    between atoms: _287  and  _288
REMARK  121  A    between atoms: _293  and  _295
REMARK  122  A    between atoms: _295  and  _296
REMARK  123  A    between atoms: _295  and  _298
REMARK  124  A    between atoms: _298  and  _299
REMARK  125  A    between atoms: _299  and  _300
REMARK  126  A    between atoms: _300  and  _301
REMARK  127  A    between atoms: _310  and  _312
REMARK  128  A    between atoms: _312  and  _313
REMARK  129  A    between atoms: _312  and  _315
REMARK  130  A    between atoms: _315  and  _316
REMARK  131  A    between atoms: _319  and  _321
REMARK  132  A    between atoms: _321  and  _322
REMARK  133  A    between atoms: _321  and  _324
REMARK  134  A    between atoms: _324  and  _325
REMARK  135  A    between atoms: _328  and  _330
REMARK  136  A    between atoms: _330  and  _331
REMARK  137  A    between atoms: _330  and  _333
REMARK  138  A    between atoms: _333  and  _334
REMARK  139  A    between atoms: _337  and  _339
REMARK  140  A    between atoms: _339  and  _340
REMARK  141  A    between atoms: _339  and  _342
REMARK  142  A    between atoms: _342  and  _343
REMARK  143  A    between atoms: _346  and  _348
REMARK  144  A    between atoms: _348  and  _349
REMARK  145  A    between atoms: _348  and  _351
REMARK  146  A    between atoms: _351  and  _352
REMARK  147  A    between atoms: _355  and  _357
REMARK  148  A    between atoms: _357  and  _358
REMARK  149  A    between atoms: _360  and  _362
REMARK  150  A    between atoms: _362  and  _363
REMARK  151  A    between atoms: _366  and  _368
REMARK  152  A    between atoms: _368  and  _369
REMARK  153  A    between atoms: _368  and  _371
REMARK  154  A    between atoms: _371  and  _372
REMARK  155  A    between atoms: _375  and  _377
REMARK  156  A    between atoms: _377  and  _378
REMARK  157  A    between atoms: _377  and  _380
REMARK  158  A    between atoms: _380  and  _381
REMARK  159  A    between atoms: _384  and  _386
REMARK  160  A    between atoms: _386  and  _387
REMARK  161  A    between atoms: _386  and  _389
REMARK  162  A    between atoms: _389  and  _390
REMARK  163  A    between atoms: _393  and  _395
REMARK  164  A    between atoms: _395  and  _396
REMARK  165  A    between atoms: _395  and  _398
REMARK  166  A    between atoms: _401  and  _403
REMARK  167  A    between atoms: _403  and  _404
REMARK  168  A    between atoms: _403  and  _406
REMARK  169  A    between atoms: _406  and  _407
REMARK  170  A    between atoms: _410  and  _412
REMARK  171  A    between atoms: _412  and  _413
REMARK  172  A    between atoms: _412  and  _415
REMARK  173  A    between atoms: _415  and  _416
REMARK  174  A    between atoms: _416  and  _417
REMARK  175  A    between atoms: _417  and  _418
REMARK  176  A    between atoms: _418  and  _419
REMARK  177  A    between atoms: _423  and  _425
REMARK  178  A    between atoms: _425  and  _426
REMARK  179  A    between atoms: _425  and  _428
REMARK  180  A    between atoms: _428  and  _429
REMARK  181  A    between atoms: _429  and  _430
REMARK  182  A    between atoms: _432  and  _434
REMARK  183  A    between atoms: _434  and  _435
REMARK  184  A    between atoms: _434  and  _437
REMARK  185  A    between atoms: _437  and  _438
REMARK  186  A    between atoms: _441  and  _443
REMARK  187  A    between atoms: _443  and  _444
REMARK  188  A    between atoms: _446  and  _448
REMARK  189  A    between atoms: _448  and  _449
REMARK  190  A    between atoms: _451  and  _453
REMARK  191  A    between atoms: _453  and  _454
REMARK  192  A    between atoms: _453  and  _456
REMARK  193  A    between atoms: _456  and  _457
REMARK  194  A    between atoms: _460  and  _462
REMARK  195  A    between atoms: _462  and  _463
REMARK  196  A    between atoms: _465  and  _467
REMARK  197  A    between atoms: _467  and  _468
REMARK  198  A    between atoms: _470  and  _472
REMARK  199  A    between atoms: _472  and  _473
REMARK  200  A    between atoms: _472  and  _475
REMARK  201  A    between atoms: _475  and  _476
REMARK  202  A    between atoms: _482  and  _484
REMARK  203  A    between atoms: _484  and  _485
REMARK  204  A    between atoms: _484  and  _487
REMARK  205  A    between atoms: _487  and  _488
REMARK  206  A    between atoms: _491  and  _493
REMARK  207  A    between atoms: _493  and  _494
REMARK  208  A    between atoms: _493  and  _496
REMARK  209  A    between atoms: _499  and  _501
REMARK  210  A    between atoms: _501  and  _502
REMARK  211  A    between atoms: _501  and  _504
REMARK  212  A    between atoms: _504  and  _505
REMARK  213  A    between atoms: _508  and  _510
REMARK  214  A    between atoms: _510  and  _511
REMARK  215  A    between atoms: _510  and  _513
REMARK  216  A    between atoms: _513  and  _514
REMARK  217  A    between atoms: _518  and  _519
REMARK  218  A    between atoms: _524  and  _526
REMARK  219  A    between atoms: _526  and  _527
REMARK  220  A    between atoms: _526  and  _529
REMARK  221  A    between atoms: _532  and  _534
REMARK  222  A    between atoms: _534  and  _535
REMARK  223  A    between atoms: _534  and  _537
REMARK  224  A    between atoms: _537  and  _538
REMARK  225  A    between atoms: _543  and  _545
REMARK  226  A    between atoms: _545  and  _546
REMARK  227  A    between atoms: _545  and  _548
REMARK  228  A    between atoms: _548  and  _549
REMARK  229  A    between atoms: _552  and  _554
REMARK  230  A    between atoms: _554  and  _555
REMARK  231  A    between atoms: _554  and  _557
REMARK  232  A    between atoms: _557  and  _558
REMARK  233  A    between atoms: _561  and  _563
REMARK  234  A    between atoms: _563  and  _564
REMARK  235  A    between atoms: _566  and  _568
REMARK  236  A    between atoms: _568  and  _569
REMARK  237  A    between atoms: _568  and  _571
REMARK  238  A    between atoms: _571  and  _572
REMARK  239  A    between atoms: _572  and  _573
REMARK  240  A    between atoms: _573  and  _574
REMARK  241  A    between atoms: _583  and  _585
REMARK  242  A    between atoms: _585  and  _586
REMARK  243  A    between atoms: _585  and  _588
REMARK  244  A    between atoms: _588  and  _589
REMARK                            x       y       z     vdW  Elec       q    Type
REMARK                         _______ _______ _______ _____ _____    ______ ____
ROOT
ATOM      1  O   HOH     1       8.831  28.119   4.563  0.00  0.00    +0.000 OA
ENDROOT
TORSDOF 0
REMARK  Name = ../refined-set-2016/1d4j/1d4j_pocket.pdb
REMARK  244 active torsions:
REMARK  status: ('A' for Active; 'I' for Inactive)
REMARK    1  A    between atoms: _1  and  _3
REMARK    2  A    between atoms: _3  and  _4
REMARK    3  A    between atoms: _3  and  _6
REMARK    4  A    between atoms: _6  and  _7
REMARK    5  A    between atoms: _7  and  _8
REMARK    6  A    between atoms: _8  and  _9
REMARK    7  A    between atoms: _18  and  _20
REMARK    8  A    between atoms: _20  and  _21
REMARK    9  A    between atoms: _20  and  _23
REMARK   10  A    between atoms: _23  and  _24
REMARK   11  A    between atoms: _27  and  _29
REMARK   12  A    between atoms: _29  and  _30
REMARK   13  A    between atoms: _29  and  _32
REMARK   14  A    between atoms: _32  and  _33
REMARK   15  A    between atoms: _36  and  _38
REMARK   16  A    between atoms: _38  and  _39
REMARK   17  A    between atoms: _38  and  _41
REMARK   18  A    between atoms: _41  and  _42
REMARK   19  A    between atoms: _45  and  _47
REMARK   20  A    between atoms: _47  and  _48
REMARK   21  A    between atoms: _47  and  _50
REMARK   22  A    between atoms: _50  and  _51
REMARK   23  A    between atoms: _54  and  _56
REMARK   24  A    between atoms: _56  and  _57
REMARK   25  A    between atoms: _56  and  _59
REMARK   26  A    between atoms: _59  and  _60
REMARK   27  A    between atoms: _63  and  _65
REMARK   28  A    between atoms: _65  and  _66
REMARK   29  A    between atoms: _68  and  _70
REMARK   30  A    between atoms: _70  and  _71
REMARK   31  A    between atoms: _74  and  _76
REMARK   32  A    between atoms: _76  and  _77
REMARK   33  A    between atoms: _76  and  _79
REMARK   34  A    between atoms: _79  and  _80
REMARK   35  A    between atoms: _83  and  _85
REMARK   36  A    between atoms: _85  and  _86
REMARK   37  A    between atoms: _85  and  _88
REMARK   38  A    between atoms: _88  and  _89
REMARK   39  A    between atoms: _92  and  _94
REMARK   40  A    between atoms: _94  and  _95
REMARK   41  A    between atoms: _94  and  _97
REMARK   42  A    between atoms: _97  and  _98
REMARK   43  A    between atoms: _101  and  _103
REMARK   44  A    between atoms: _103  and  _104
REMARK   45  A    between atoms: _103  and  _106
REMARK   46  A    between atoms: _109  and  _111
REMARK   47  A    between atoms: _111  and  _112
REMARK   48  A    between atoms: _111  and  _114
REMARK   49  A    between atoms: _114  and  _115
REMARK   50  A    between atoms: _115  and  _116
REMARK   51  A    between atoms: _116  and  _117
REMARK   52  A    between atoms: _117  and  _118
REMARK   53  A    between atoms: _122  and  _124
REMARK   54  A    between atoms: _124  and  _125
REMARK   55  A    between atoms: _124  and  _127
REMARK   56  A    between atoms: _127  and  _128
REMARK   57  A    between atoms: _128  and  _129
REMARK   58  A    between atoms: _131  and  _133
REMARK   59  A    between atoms: _133  and  _134
REMARK   60  A    between atoms: _133  and  _136
REMARK   61  A    between atoms: _136  and  _137
REMARK   62  A    between atoms: _140  and  _142
REMARK   63  A    between atoms: _142  and  _143
REMARK   64  A    between atoms: _145  and  _147
REMARK   65  A    between atoms: _147  and  _148
REMARK   66  A    between atoms: _150  and  _152
REMARK   67  A    between atoms: _152  and  _153
REMARK   68  A    between atoms: _152  and  _155
REMARK   69  A    between atoms: _155  and  _156
REMARK   70  A    between atoms: _159  and  _161
REMARK   71  A    between atoms: _161  and  _162
REMARK   72  A    between atoms: _164  and  _166
REMARK   73  A    between atoms: _166  and  _167
REMARK   74  A    between atoms: _169  and  _171
REMARK   75  A    between atoms: _171  and  _172
REMARK   76  A    between atoms: _171  and  _174
REMARK   77  A    between atoms: _174  and  _175
REMARK   78  A    between atoms: _181  and  _183
REMARK   79  A    between atoms: _183  and  _184
REMARK   80  A    between atoms: _183  and  _186
REMARK   81  A    between atoms: _186  and  _187
REMARK   82  A    between atoms: _190  and  _192
REMARK   83  A    between atoms: _192  and  _193
REMARK   84  A    between atoms: _192  and  _195
REMARK   85  A    between atoms: _198  and  _200
REMARK   86  A    between atoms: _200  and  _201
REMARK   87  A    between atoms: _200  and  _203
REMARK   88  A    between atoms: _203  and  _204
REMARK   89  A    between atoms: _207  and  _209
REMARK   90  A    between atoms: _209  and  _210
REMARK   91  A    between atoms: _209  and  _212
REMARK   92  A    between atoms: _212  and  _213
REMARK   93  A    between atoms: _217  and  _218
REMARK   94  A    between atoms: _223  and  _225
REMARK   95  A    between atoms: _225  and  _226
REMARK   96  A    between atoms: _225  and  _228
REMARK   97  A    between atoms: _231  and  _233
REMARK   98  A    between atoms: _233  and  _234
REMARK   99  A    between atoms: _233  and  _236
REMARK  100  A    between atoms: _236  and  _237
REMARK  101  A    between atoms: _242  and  _244
REMARK  102  A    between atoms: _244  and  _245
REMARK  103  A    between atoms: _244  and  _247
REMARK  104  A    between atoms: _247  and  _248
REMARK  105  A    between atoms: _251  and  _253
REMARK  106  A    between atoms: _253  and  _254
REMARK  107  A    between atoms: _253  and  _256
REMARK  108  A    between atoms: _256  and  _257
REMARK  109  A    between atoms: _260  and  _262
REMARK  110  A    between atoms: _262  and  _263
REMARK  111  A    between atoms: _265  and  _267
REMARK  112  A    between atoms: _267  and  _268
REMARK  113  A    between atoms: _267  and  _270
REMARK  114  A    between atoms: _270  and  _271
REMARK  115  A    between atoms: _271  and  _272
REMARK  116  A    between atoms: _272  and  _273
REMARK  117  A    between atoms: _282  and  _284
REMARK  118  A    between atoms: _284  and  _285
REMARK  119  A    between atoms: _284  and  _287
REMARK  120  A    between atoms: _287  and  _288
REMARK  121  A    between atoms: _293  and  _295
REMARK  122  A    between atoms: _295  and  _296
REMARK  123  A    between atoms: _295  and  _298
REMARK  124  A    between atoms: _298  and  _299
REMARK  125  A    between atoms: _299  and  _300
REMARK  126  A    between atoms: _300  and  _301
REMARK  127  A    between atoms: _310  and  _312
REMARK  128  A    between atoms: _312  and  _313
REMARK  129  A    between atoms: _312  and  _315
REMARK  130  A    between atoms: _315  and  _316
REMARK  131  A    between atoms: _319  and  _321
REMARK  132  A    between atoms: _321  and  _322
REMARK  133  A    between atoms: _321  and  _324
REMARK  134  A    between atoms: _324  and  _325
REMARK  135  A    between atoms: _328  and  _330
REMARK  136  A    between atoms: _330  and  _331
REMARK  137  A    between atoms: _330  and  _333
REMARK  138  A    between atoms: _333  and  _334
REMARK  139  A    between atoms: _337  and  _339
REMARK  140  A    between atoms: _339  and  _340
REMARK  141  A    between atoms: _339  and  _342
REMARK  142  A    between atoms: _342  and  _343
REMARK  143  A    between atoms: _346  and  _348
REMARK  144  A    between atoms: _348  and  _349
REMARK  145  A    between atoms: _348  and  _351
REMARK  146  A    between atoms: _351  and  _352
REMARK  147  A    between atoms: _355  and  _357
REMARK  148  A    between atoms: _357  and  _358
REMARK  149  A    between atoms: _360  and  _362
REMARK  150  A    between atoms: _362  and  _363
REMARK  151  A    between atoms: _366  and  _368
REMARK  152  A    between atoms: _368  and  _369
REMARK  153  A    between atoms: _368  and  _371
REMARK  154  A    between atoms: _371  and  _372
REMARK  155  A    between atoms: _375  and  _377
REMARK  156  A    between atoms: _377  and  _378
REMARK  157  A    between atoms: _377  and  _380
REMARK  158  A    between atoms: _380  and  _381
REMARK  159  A    between atoms: _384  and  _386
REMARK  160  A    between atoms: _386  and  _387
REMARK  161  A    between atoms: _386  and  _389
REMARK  162  A    between atoms: _389  and  _390
REMARK  163  A    between atoms: _393  and  _395
REMARK  164  A    between atoms: _395  and  _396
REMARK  165  A    between atoms: _395  and  _398
REMARK  166  A    between atoms: _401  and  _403
REMARK  167  A    between atoms: _403  and  _404
REMARK  168  A    between atoms: _403  and  _406
REMARK  169  A    between atoms: _406  and  _407
REMARK  170  A    between atoms: _410  and  _412
REMARK  171  A    between atoms: _412  and  _413
REMARK  172  A    between atoms: _412  and  _415
REMARK  173  A    between atoms: _415  and  _416
REMARK  174  A    between atoms: _416  and  _417
REMARK  175  A    between atoms: _417  and  _418
REMARK  176  A    between atoms: _418  and  _419
REMARK  177  A    between atoms: _423  and  _425
REMARK  178  A    between atoms: _425  and  _426
REMARK  179  A    between atoms: _425  and  _428
REMARK  180  A    between atoms: _428  and  _429
REMARK  181  A    between atoms: _429  and  _430
REMARK  182  A    between atoms: _432  and  _434
REMARK  183  A    between atoms: _434  and  _435
REMARK  184  A    between atoms: _434  and  _437
REMARK  185  A    between atoms: _437  and  _438
REMARK  186  A    between atoms: _441  and  _443
REMARK  187  A    between atoms: _443  and  _444
REMARK  188  A    between atoms: _446  and  _448
REMARK  189  A    between atoms: _448  and  _449
REMARK  190  A    between atoms: _451  and  _453
REMARK  191  A    between atoms: _453  and  _454
REMARK  192  A    between atoms: _453  and  _456
REMARK  193  A    between atoms: _456  and  _457
REMARK  194  A    between atoms: _460  and  _462
REMARK  195  A    between atoms: _462  and  _463
REMARK  196  A    between atoms: _465  and  _467
REMARK  197  A    between atoms: _467  and  _468
REMARK  198  A    between atoms: _470  and  _472
REMARK  199  A    between atoms: _472  and  _473
REMARK  200  A    between atoms: _472  and  _475
REMARK  201  A    between atoms: _475  and  _476
REMARK  202  A    between atoms: _482  and  _484
REMARK  203  A    between atoms: _484  and  _485
REMARK  204  A    between atoms: _484  and  _487
REMARK  205  A    between atoms: _487  and  _488
REMARK  206  A    between atoms: _491  and  _493
REMARK  207  A    between atoms: _493  and  _494
REMARK  208  A    between atoms: _493  and  _496
REMARK  209  A    between atoms: _499  and  _501
REMARK  210  A    between atoms: _501  and  _502
REMARK  211  A    between atoms: _501  and  _504
REMARK  212  A    between atoms: _504  and  _505
REMARK  213  A    between atoms: _508  and  _510
REMARK  214  A    between atoms: _510  and  _511
REMARK  215  A    between atoms: _510  and  _513
REMARK  216  A    between atoms: _513  and  _514
REMARK  217  A    between atoms: _518  and  _519
REMARK  218  A    between atoms: _524  and  _526
REMARK  219  A    between atoms: _526  and  _527
REMARK  220  A    between atoms: _526  and  _529
REMARK  221  A    between atoms: _532  and  _534
REMARK  222  A    between atoms: _534  and  _535
REMARK  223  A    between atoms: _534  and  _537
REMARK  224  A    between atoms: _537  and  _538
REMARK  225  A    between atoms: _543  and  _545
REMARK  226  A    between atoms: _545  and  _546
REMARK  227  A    between atoms: _545  and  _548
REMARK  228  A    between atoms: _548  and  _549
REMARK  229  A    between atoms: _552  and  _554
REMARK  230  A    between atoms: _554  and  _555
REMARK  231  A    between atoms: _554  and  _557
REMARK  232  A    between atoms: _557  and  _558
REMARK  233  A    between atoms: _561  and  _563
REMARK  234  A    between atoms: _563  and  _564
REMARK  235  A    between atoms: _566  and  _568
REMARK  236  A    between atoms: _568  and  _569
REMARK  237  A    between atoms: _568  and  _571
REMARK  238  A    between atoms: _571  and  _572
REMARK  239  A    between atoms: _572  and  _573
REMARK  240  A    between atoms: _573  and  _574
REMARK  241  A    between atoms: _583  and  _585
REMARK  242  A    between atoms: _585  and  _586
REMARK  243  A    between atoms: _585  and  _588
REMARK  244  A    between atoms: _588  and  _589
REMARK                            x       y       z     vdW  Elec       q    Type
REMARK                         _______ _______ _______ _____ _____    ______ ____
ROOT
ATOM      1  O   HOH     1      11.072  30.905   1.741  0.00  0.00    +0.000 OA
ENDROOT
TORSDOF 0
REMARK  Name = ../refined-set-2016/1d4j/1d4j_pocket.pdb
REMARK  244 active torsions:
REMARK  status: ('A' for Active; 'I' for Inactive)
REMARK    1  A    between atoms: _1  and  _3
REMARK    2  A    between atoms: _3  and  _4
REMARK    3  A    between atoms: _3  and  _6
REMARK    4  A    between atoms: _6  and  _7
REMARK    5  A    between atoms: _7  and  _8
REMARK    6  A    between atoms: _8  and  _9
REMARK    7  A    between atoms: _18  and  _20
REMARK    8  A    between atoms: _20  and  _21
REMARK    9  A    between atoms: _20  and  _23
REMARK   10  A    between atoms: _23  and  _24
REMARK   11  A    between atoms: _27  and  _29
REMARK   12  A    between atoms: _29  and  _30
REMARK   13  A    between atoms: _29  and  _32
REMARK   14  A    between atoms: _32  and  _33
REMARK   15  A    between atoms: _36  and  _38
REMARK   16  A    between atoms: _38  and  _39
REMARK   17  A    between atoms: _38  and  _41
REMARK   18  A    between atoms: _41  and  _42
REMARK   19  A    between atoms: _45  and  _47
REMARK   20  A    between atoms: _47  and  _48
REMARK   21  A    between atoms: _47  and  _50
REMARK   22  A    between atoms: _50  and  _51
REMARK   23  A    between atoms: _54  and  _56
REMARK   24  A    between atoms: _56  and  _57
REMARK   25  A    between atoms: _56  and  _59
REMARK   26  A    between atoms: _59  and  _60
REMARK   27  A    between atoms: _63  and  _65
REMARK   28  A    between atoms: _65  and  _66
REMARK   29  A    between atoms: _68  and  _70
REMARK   30  A    between atoms: _70  and  _71
REMARK   31  A    between atoms: _74  and  _76
REMARK   32  A    between atoms: _76  and  _77
REMARK   33  A    between atoms: _76  and  _79
REMARK   34  A    between atoms: _79  and  _80
REMARK   35  A    between atoms: _83  and  _85
REMARK   36  A    between atoms: _85  and  _86
REMARK   37  A    between atoms: _85  and  _88
REMARK   38  A    between atoms: _88  and  _89
REMARK   39  A    between atoms: _92  and  _94
REMARK   40  A    between atoms: _94  and  _95
REMARK   41  A    between atoms: _94  and  _97
REMARK   42  A    between atoms: _97  and  _98
REMARK   43  A    between atoms: _101  and  _103
REMARK   44  A    between atoms: _103  and  _104
REMARK   45  A    between atoms: _103  and  _106
REMARK   46  A    between atoms: _109  and  _111
REMARK   47  A    between atoms: _111  and  _112
REMARK   48  A    between atoms: _111  and  _114
REMARK   49  A    between atoms: _114  and  _115
REMARK   50  A    between atoms: _115  and  _116
REMARK   51  A    between atoms: _116  and  _117
REMARK   52  A    between atoms: _117  and  _118
REMARK   53  A    between atoms: _122  and  _124
REMARK   54  A    between atoms: _124  and  _125
REMARK   55  A    between atoms: _124  and  _127
REMARK   56  A    between atoms: _127  and  _128
REMARK   57  A    between atoms: _128  and  _129
REMARK   58  A    between atoms: _131  and  _133
REMARK   59  A    between atoms: _133  and  _134
REMARK   60  A    between atoms: _133  and  _136
REMARK   61  A    between atoms: _136  and  _137
REMARK   62  A    between atoms: _140  and  _142
REMARK   63  A    between atoms: _142  and  _143
REMARK   64  A    between atoms: _145  and  _147
REMARK   65  A    between atoms: _147  and  _148
REMARK   66  A    between atoms: _150  and  _152
REMARK   67  A    between atoms: _152  and  _153
REMARK   68  A    between atoms: _152  and  _155
REMARK   69  A    between atoms: _155  and  _156
REMARK   70  A    between atoms: _159  and  _161
REMARK   71  A    between atoms: _161  and  _162
REMARK   72  A    between atoms: _164  and  _166
REMARK   73  A    between atoms: _166  and  _167
REMARK   74  A    between atoms: _169  and  _171
REMARK   75  A    between atoms: _171  and  _172
REMARK   76  A    between atoms: _171  and  _174
REMARK   77  A    between atoms: _174  and  _175
REMARK   78  A    between atoms: _181  and  _183
REMARK   79  A    between atoms: _183  and  _184
REMARK   80  A    between atoms: _183  and  _186
REMARK   81  A    between atoms: _186  and  _187
REMARK   82  A    between atoms: _190  and  _192
REMARK   83  A    between atoms: _192  and  _193
REMARK   84  A    between atoms: _192  and  _195
REMARK   85  A    between atoms: _198  and  _200
REMARK   86  A    between atoms: _200  and  _201
REMARK   87  A    between atoms: _200  and  _203
REMARK   88  A    between atoms: _203  and  _204
REMARK   89  A    between atoms: _207  and  _209
REMARK   90  A    between atoms: _209  and  _210
REMARK   91  A    between atoms: _209  and  _212
REMARK   92  A    between atoms: _212  and  _213
REMARK   93  A    between atoms: _217  and  _218
REMARK   94  A    between atoms: _223  and  _225
REMARK   95  A    between atoms: _225  and  _226
REMARK   96  A    between atoms: _225  and  _228
REMARK   97  A    between atoms: _231  and  _233
REMARK   98  A    between atoms: _233  and  _234
REMARK   99  A    between atoms: _233  and  _236
REMARK  100  A    between atoms: _236  and  _237
REMARK  101  A    between atoms: _242  and  _244
REMARK  102  A    between atoms: _244  and  _245
REMARK  103  A    between atoms: _244  and  _247
REMARK  104  A    between atoms: _247  and  _248
REMARK  105  A    between atoms: _251  and  _253
REMARK  106  A    between atoms: _253  and  _254
REMARK  107  A    between atoms: _253  and  _256
REMARK  108  A    between atoms: _256  and  _257
REMARK  109  A    between atoms: _260  and  _262
REMARK  110  A    between atoms: _262  and  _263
REMARK  111  A    between atoms: _265  and  _267
REMARK  112  A    between atoms: _267  and  _268
REMARK  113  A    between atoms: _267  and  _270
REMARK  114  A    between atoms: _270  and  _271
REMARK  115  A    between atoms: _271  and  _272
REMARK  116  A    between atoms: _272  and  _273
REMARK  117  A    between atoms: _282  and  _284
REMARK  118  A    between atoms: _284  and  _285
REMARK  119  A    between atoms: _284  and  _287
REMARK  120  A    between atoms: _287  and  _288
REMARK  121  A    between atoms: _293  and  _295
REMARK  122  A    between atoms: _295  and  _296
REMARK  123  A    between atoms: _295  and  _298
REMARK  124  A    between atoms: _298  and  _299
REMARK  125  A    between atoms: _299  and  _300
REMARK  126  A    between atoms: _300  and  _301
REMARK  127  A    between atoms: _310  and  _312
REMARK  128  A    between atoms: _312  and  _313
REMARK  129  A    between atoms: _312  and  _315
REMARK  130  A    between atoms: _315  and  _316
REMARK  131  A    between atoms: _319  and  _321
REMARK  132  A    between atoms: _321  and  _322
REMARK  133  A    between atoms: _321  and  _324
REMARK  134  A    between atoms: _324  and  _325
REMARK  135  A    between atoms: _328  and  _330
REMARK  136  A    between atoms: _330  and  _331
REMARK  137  A    between atoms: _330  and  _333
REMARK  138  A    between atoms: _333  and  _334
REMARK  139  A    between atoms: _337  and  _339
REMARK  140  A    between atoms: _339  and  _340
REMARK  141  A    between atoms: _339  and  _342
REMARK  142  A    between atoms: _342  and  _343
REMARK  143  A    between atoms: _346  and  _348
REMARK  144  A    between atoms: _348  and  _349
REMARK  145  A    between atoms: _348  and  _351
REMARK  146  A    between atoms: _351  and  _352
REMARK  147  A    between atoms: _355  and  _357
REMARK  148  A    between atoms: _357  and  _358
REMARK  149  A    between atoms: _360  and  _362
REMARK  150  A    between atoms: _362  and  _363
REMARK  151  A    between atoms: _366  and  _368
REMARK  152  A    between atoms: _368  and  _369
REMARK  153  A    between atoms: _368  and  _371
REMARK  154  A    between atoms: _371  and  _372
REMARK  155  A    between atoms: _375  and  _377
REMARK  156  A    between atoms: _377  and  _378
REMARK  157  A    between atoms: _377  and  _380
REMARK  158  A    between atoms: _380  and  _381
REMARK  159  A    between atoms: _384  and  _386
REMARK  160  A    between atoms: _386  and  _387
REMARK  161  A    between atoms: _386  and  _389
REMARK  162  A    between atoms: _389  and  _390
REMARK  163  A    between atoms: _393  and  _395
REMARK  164  A    between atoms: _395  and  _396
REMARK  165  A    between atoms: _395  and  _398
REMARK  166  A    between atoms: _401  and  _403
REMARK  167  A    between atoms: _403  and  _404
REMARK  168  A    between atoms: _403  and  _406
REMARK  169  A    between atoms: _406  and  _407
REMARK  170  A    between atoms: _410  and  _412
REMARK  171  A    between atoms: _412  and  _413
REMARK  172  A    between atoms: _412  and  _415
REMARK  173  A    between atoms: _415  and  _416
REMARK  174  A    between atoms: _416  and  _417
REMARK  175  A    between atoms: _417  and  _418
REMARK  176  A    between atoms: _418  and  _419
REMARK  177  A    between atoms: _423  and  _425
REMARK  178  A    between atoms: _425  and  _426
REMARK  179  A    between atoms: _425  and  _428
REMARK  180  A    between atoms: _428  and  _429
REMARK  181  A    between atoms: _429  and  _430
REMARK  182  A    between atoms: _432  and  _434
REMARK  183  A    between atoms: _434  and  _435
REMARK  184  A    between atoms: _434  and  _437
REMARK  185  A    between atoms: _437  and  _438
REMARK  186  A    between atoms: _441  and  _443
REMARK  187  A    between atoms: _443  and  _444
REMARK  188  A    between atoms: _446  and  _448
REMARK  189  A    between atoms: _448  and  _449
REMARK  190  A    between atoms: _451  and  _453
REMARK  191  A    between atoms: _453  and  _454
REMARK  192  A    between atoms: _453  and  _456
REMARK  193  A    between atoms: _456  and  _457
REMARK  194  A    between atoms: _460  and  _462
REMARK  195  A    between atoms: _462  and  _463
REMARK  196  A    between atoms: _465  and  _467
REMARK  197  A    between atoms: _467  and  _468
REMARK  198  A    between atoms: _470  and  _472
REMARK  199  A    between atoms: _472  and  _473
REMARK  200  A    between atoms: _472  and  _475
REMARK  201  A    between atoms: _475  and  _476
REMARK  202  A    between atoms: _482  and  _484
REMARK  203  A    between atoms: _484  and  _485
REMARK  204  A    between atoms: _484  and  _487
REMARK  205  A    between atoms: _487  and  _488
REMARK  206  A    between atoms: _491  and  _493
REMARK  207  A    between atoms: _493  and  _494
REMARK  208  A    between atoms: _493  and  _496
REMARK  209  A    between atoms: _499  and  _501
REMARK  210  A    between atoms: _501  and  _502
REMARK  211  A    between atoms: _501  and  _504
REMARK  212  A    between atoms: _504  and  _505
REMARK  213  A    between atoms: _508  and  _510
REMARK  214  A    between atoms: _510  and  _511
REMARK  215  A    between atoms: _510  and  _513
REMARK  216  A    between atoms: _513  and  _514
REMARK  217  A    between atoms: _518  and  _519
REMARK  218  A    between atoms: _524  and  _526
REMARK  219  A    between atoms: _526  and  _527
REMARK  220  A    between atoms: _526  and  _529
REMARK  221  A    between atoms: _532  and  _534
REMARK  222  A    between atoms: _534  and  _535
REMARK  223  A    between atoms: _534  and  _537
REMARK  224  A    between atoms: _537  and  _538
REMARK  225  A    between atoms: _543  and  _545
REMARK  226  A    between atoms: _545  and  _546
REMARK  227  A    between atoms: _545  and  _548
REMARK  228  A    between atoms: _548  and  _549
REMARK  229  A    between atoms: _552  and  _554
REMARK  230  A    between atoms: _554  and  _555
REMARK  231  A    between atoms: _554  and  _557
REMARK  232  A    between atoms: _557  and  _558
REMARK  233  A    between atoms: _561  and  _563
REMARK  234  A    between atoms: _563  and  _564
REMARK  235  A    between atoms: _566  and  _568
REMARK  236  A    between atoms: _568  and  _569
REMARK  237  A    between atoms: _568  and  _571
REMARK  238  A    between atoms: _571  and  _572
REMARK  239  A    between atoms: _572  and  _573
REMARK  240  A    between atoms: _573  and  _574
REMARK  241  A    between atoms: _583  and  _585
REMARK  242  A    between atoms: _585  and  _586
REMARK  243  A    between atoms: _585  and  _588
REMARK  244  A    between atoms: _588  and  _589
REMARK                            x       y       z     vdW  Elec       q    Type
REMARK                         _______ _______ _______ _____ _____    ______ ____
ROOT
ATOM      1  O   HOH     1       4.237  24.933   4.955  0.00  0.00    +0.000 OA
ENDROOT
TORSDOF 0
REMARK  Name = ../refined-set-2016/1d4j/1d4j_pocket.pdb
REMARK  244 active torsions:
REMARK  status: ('A' for Active; 'I' for Inactive)
REMARK    1  A    between atoms: _1  and  _3
REMARK    2  A    between atoms: _3  and  _4
REMARK    3  A    between atoms: _3  and  _6
REMARK    4  A    between atoms: _6  and  _7
REMARK    5  A    between atoms: _7  and  _8
REMARK    6  A    between atoms: _8  and  _9
REMARK    7  A    between atoms: _18  and  _20
REMARK    8  A    between atoms: _20  and  _21
REMARK    9  A    between atoms: _20  and  _23
REMARK   10  A    between atoms: _23  and  _24
REMARK   11  A    between atoms: _27  and  _29
REMARK   12  A    between atoms: _29  and  _30
REMARK   13  A    between atoms: _29  and  _32
REMARK   14  A    between atoms: _32  and  _33
REMARK   15  A    between atoms: _36  and  _38
REMARK   16  A    between atoms: _38  and  _39
REMARK   17  A    between atoms: _38  and  _41
REMARK   18  A    between atoms: _41  and  _42
REMARK   19  A    between atoms: _45  and  _47
REMARK   20  A    between atoms: _47  and  _48
REMARK   21  A    between atoms: _47  and  _50
REMARK   22  A    between atoms: _50  and  _51
REMARK   23  A    between atoms: _54  and  _56
REMARK   24  A    between atoms: _56  and  _57
REMARK   25  A    between atoms: _56  and  _59
REMARK   26  A    between atoms: _59  and  _60
REMARK   27  A    between atoms: _63  and  _65
REMARK   28  A    between atoms: _65  and  _66
REMARK   29  A    between atoms: _68  and  _70
REMARK   30  A    between atoms: _70  and  _71
REMARK   31  A    between atoms: _74  and  _76
REMARK   32  A    between atoms: _76  and  _77
REMARK   33  A    between atoms: _76  and  _79
REMARK   34  A    between atoms: _79  and  _80
REMARK   35  A    between atoms: _83  and  _85
REMARK   36  A    between atoms: _85  and  _86
REMARK   37  A    between atoms: _85  and  _88
REMARK   38  A    between atoms: _88  and  _89
REMARK   39  A    between atoms: _92  and  _94
REMARK   40  A    between atoms: _94  and  _95
REMARK   41  A    between atoms: _94  and  _97
REMARK   42  A    between atoms: _97  and  _98
REMARK   43  A    between atoms: _101  and  _103
REMARK   44  A    between atoms: _103  and  _104
REMARK   45  A    between atoms: _103  and  _106
REMARK   46  A    between atoms: _109  and  _111
REMARK   47  A    between atoms: _111  and  _112
REMARK   48  A    between atoms: _111  and  _114
REMARK   49  A    between atoms: _114  and  _115
REMARK   50  A    between atoms: _115  and  _116
REMARK   51  A    between atoms: _116  and  _117
REMARK   52  A    between atoms: _117  and  _118
REMARK   53  A    between atoms: _122  and  _124
REMARK   54  A    between atoms: _124  and  _125
REMARK   55  A    between atoms: _124  and  _127
REMARK   56  A    between atoms: _127  and  _128
REMARK   57  A    between atoms: _128  and  _129
REMARK   58  A    between atoms: _131  and  _133
REMARK   59  A    between atoms: _133  and  _134
REMARK   60  A    between atoms: _133  and  _136
REMARK   61  A    between atoms: _136  and  _137
REMARK   62  A    between atoms: _140  and  _142
REMARK   63  A    between atoms: _142  and  _143
REMARK   64  A    between atoms: _145  and  _147
REMARK   65  A    between atoms: _147  and  _148
REMARK   66  A    between atoms: _150  and  _152
REMARK   67  A    between atoms: _152  and  _153
REMARK   68  A    between atoms: _152  and  _155
REMARK   69  A    between atoms: _155  and  _156
REMARK   70  A    between atoms: _159  and  _161
REMARK   71  A    between atoms: _161  and  _162
REMARK   72  A    between atoms: _164  and  _166
REMARK   73  A    between atoms: _166  and  _167
REMARK   74  A    between atoms: _169  and  _171
REMARK   75  A    between atoms: _171  and  _172
REMARK   76  A    between atoms: _171  and  _174
REMARK   77  A    between atoms: _174  and  _175
REMARK   78  A    between atoms: _181  and  _183
REMARK   79  A    between atoms: _183  and  _184
REMARK   80  A    between atoms: _183  and  _186
REMARK   81  A    between atoms: _186  and  _187
REMARK   82  A    between atoms: _190  and  _192
REMARK   83  A    between atoms: _192  and  _193
REMARK   84  A    between atoms: _192  and  _195
REMARK   85  A    between atoms: _198  and  _200
REMARK   86  A    between atoms: _200  and  _201
REMARK   87  A    between atoms: _200  and  _203
REMARK   88  A    between atoms: _203  and  _204
REMARK   89  A    between atoms: _207  and  _209
REMARK   90  A    between atoms: _209  and  _210
REMARK   91  A    between atoms: _209  and  _212
REMARK   92  A    between atoms: _212  and  _213
REMARK   93  A    between atoms: _217  and  _218
REMARK   94  A    between atoms: _223  and  _225
REMARK   95  A    between atoms: _225  and  _226
REMARK   96  A    between atoms: _225  and  _228
REMARK   97  A    between atoms: _231  and  _233
REMARK   98  A    between atoms: _233  and  _234
REMARK   99  A    between atoms: _233  and  _236
REMARK  100  A    between atoms: _236  and  _237
REMARK  101  A    between atoms: _242  and  _244
REMARK  102  A    between atoms: _244  and  _245
REMARK  103  A    between atoms: _244  and  _247
REMARK  104  A    between atoms: _247  and  _248
REMARK  105  A    between atoms: _251  and  _253
REMARK  106  A    between atoms: _253  and  _254
REMARK  107  A    between atoms: _253  and  _256
REMARK  108  A    between atoms: _256  and  _257
REMARK  109  A    between atoms: _260  and  _262
REMARK  110  A    between atoms: _262  and  _263
REMARK  111  A    between atoms: _265  and  _267
REMARK  112  A    between atoms: _267  and  _268
REMARK  113  A    between atoms: _267  and  _270
REMARK  114  A    between atoms: _270  and  _271
REMARK  115  A    between atoms: _271  and  _272
REMARK  116  A    between atoms: _272  and  _273
REMARK  117  A    between atoms: _282  and  _284
REMARK  118  A    between atoms: _284  and  _285
REMARK  119  A    between atoms: _284  and  _287
REMARK  120  A    between atoms: _287  and  _288
REMARK  121  A    between atoms: _293  and  _295
REMARK  122  A    between atoms: _295  and  _296
REMARK  123  A    between atoms: _295  and  _298
REMARK  124  A    between atoms: _298  and  _299
REMARK  125  A    between atoms: _299  and  _300
REMARK  126  A    between atoms: _300  and  _301
REMARK  127  A    between atoms: _310  and  _312
REMARK  128  A    between atoms: _312  and  _313
REMARK  129  A    between atoms: _312  and  _315
REMARK  130  A    between atoms: _315  and  _316
REMARK  131  A    between atoms: _319  and  _321
REMARK  132  A    between atoms: _321  and  _322
REMARK  133  A    between atoms: _321  and  _324
REMARK  134  A    between atoms: _324  and  _325
REMARK  135  A    between atoms: _328  and  _330
REMARK  136  A    between atoms: _330  and  _331
REMARK  137  A    between atoms: _330  and  _333
REMARK  138  A    between atoms: _333  and  _334
REMARK  139  A    between atoms: _337  and  _339
REMARK  140  A    between atoms: _339  and  _340
REMARK  141  A    between atoms: _339  and  _342
REMARK  142  A    between atoms: _342  and  _343
REMARK  143  A    between atoms: _346  and  _348
REMARK  144  A    between atoms: _348  and  _349
REMARK  145  A    between atoms: _348  and  _351
REMARK  146  A    between atoms: _351  and  _352
REMARK  147  A    between atoms: _355  and  _357
REMARK  148  A    between atoms: _357  and  _358
REMARK  149  A    between atoms: _360  and  _362
REMARK  150  A    between atoms: _362  and  _363
REMARK  151  A    between atoms: _366  and  _368
REMARK  152  A    between atoms: _368  and  _369
REMARK  153  A    between atoms: _368  and  _371
REMARK  154  A    between atoms: _371  and  _372
REMARK  155  A    between atoms: _375  and  _377
REMARK  156  A    between atoms: _377  and  _378
REMARK  157  A    between atoms: _377  and  _380
REMARK  158  A    between atoms: _380  and  _381
REMARK  159  A    between atoms: _384  and  _386
REMARK  160  A    between atoms: _386  and  _387
REMARK  161  A    between atoms: _386  and  _389
REMARK  162  A    between atoms: _389  and  _390
REMARK  163  A    between atoms: _393  and  _395
REMARK  164  A    between atoms: _395  and  _396
REMARK  165  A    between atoms: _395  and  _398
REMARK  166  A    between atoms: _401  and  _403
REMARK  167  A    between atoms: _403  and  _404
REMARK  168  A    between atoms: _403  and  _406
REMARK  169  A    between atoms: _406  and  _407
REMARK  170  A    between atoms: _410  and  _412
REMARK  171  A    between atoms: _412  and  _413
REMARK  172  A    between atoms: _412  and  _415
REMARK  173  A    between atoms: _415  and  _416
REMARK  174  A    between atoms: _416  and  _417
REMARK  175  A    between atoms: _417  and  _418
REMARK  176  A    between atoms: _418  and  _419
REMARK  177  A    between atoms: _423  and  _425
REMARK  178  A    between atoms: _425  and  _426
REMARK  179  A    between atoms: _425  and  _428
REMARK  180  A    between atoms: _428  and  _429
REMARK  181  A    between atoms: _429  and  _430
REMARK  182  A    between atoms: _432  and  _434
REMARK  183  A    between atoms: _434  and  _435
REMARK  184  A    between atoms: _434  and  _437
REMARK  185  A    between atoms: _437  and  _438
REMARK  186  A    between atoms: _441  and  _443
REMARK  187  A    between atoms: _443  and  _444
REMARK  188  A    between atoms: _446  and  _448
REMARK  189  A    between atoms: _448  and  _449
REMARK  190  A    between atoms: _451  and  _453
REMARK  191  A    between atoms: _453  and  _454
REMARK  192  A    between atoms: _453  and  _456
REMARK  193  A    between atoms: _456  and  _457
REMARK  194  A    between atoms: _460  and  _462
REMARK  195  A    between atoms: _462  and  _463
REMARK  196  A    between atoms: _465  and  _467
REMARK  197  A    between atoms: _467  and  _468
REMARK  198  A    between atoms: _470  and  _472
REMARK  199  A    between atoms: _472  and  _473
REMARK  200  A    between atoms: _472  and  _475
REMARK  201  A    between atoms: _475  and  _476
REMARK  202  A    between atoms: _482  and  _484
REMARK  203  A    between atoms: _484  and  _485
REMARK  204  A    between atoms: _484  and  _487
REMARK  205  A    between atoms: _487  and  _488
REMARK  206  A    between atoms: _491  and  _493
REMARK  207  A    between atoms: _493  and  _494
REMARK  208  A    between atoms: _493  and  _496
REMARK  209  A    between atoms: _499  and  _501
REMARK  210  A    between atoms: _501  and  _502
REMARK  211  A    between atoms: _501  and  _504
REMARK  212  A    between atoms: _504  and  _505
REMARK  213  A    between atoms: _508  and  _510
REMARK  214  A    between atoms: _510  and  _511
REMARK  215  A    between atoms: _510  and  _513
REMARK  216  A    between atoms: _513  and  _514
REMARK  217  A    between atoms: _518  and  _519
REMARK  218  A    between atoms: _524  and  _526
REMARK  219  A    between atoms: _526  and  _527
REMARK  220  A    between atoms: _526  and  _529
REMARK  221  A    between atoms: _532  and  _534
REMARK  222  A    between atoms: _534  and  _535
REMARK  223  A    between atoms: _534  and  _537
REMARK  224  A    between atoms: _537  and  _538
REMARK  225  A    between atoms: _543  and  _545
REMARK  226  A    between atoms: _545  and  _546
REMARK  227  A    between atoms: _545  and  _548
REMARK  228  A    between atoms: _548  and  _549
REMARK  229  A    between atoms: _552  and  _554
REMARK  230  A    between atoms: _554  and  _555
REMARK  231  A    between atoms: _554  and  _557
REMARK  232  A    between atoms: _557  and  _558
REMARK  233  A    between atoms: _561  and  _563
REMARK  234  A    between atoms: _563  and  _564
REMARK  235  A    between atoms: _566  and  _568
REMARK  236  A    between atoms: _568  and  _569
REMARK  237  A    between atoms: _568  and  _571
REMARK  238  A    between atoms: _571  and  _572
REMARK  239  A    between atoms: _572  and  _573
REMARK  240  A    between atoms: _573  and  _574
REMARK  241  A    between atoms: _583  and  _585
REMARK  242  A    between atoms: _585  and  _586
REMARK  243  A    between atoms: _585  and  _588
REMARK  244  A    between atoms: _588  and  _589
REMARK                            x       y       z     vdW  Elec       q    Type
REMARK                         _______ _______ _______ _____ _____    ______ ____
ROOT
ATOM      1  O   HOH     1       0.465  25.504   5.608  0.00  0.00    +0.000 OA
ENDROOT
TORSDOF 0
REMARK  Name = ../refined-set-2016/1d4j/1d4j_pocket.pdb
REMARK  244 active torsions:
REMARK  status: ('A' for Active; 'I' for Inactive)
REMARK    1  A    between atoms: _1  and  _3
REMARK    2  A    between atoms: _3  and  _4
REMARK    3  A    between atoms: _3  and  _6
REMARK    4  A    between atoms: _6  and  _7
REMARK    5  A    between atoms: _7  and  _8
REMARK    6  A    between atoms: _8  and  _9
REMARK    7  A    between atoms: _18  and  _20
REMARK    8  A    between atoms: _20  and  _21
REMARK    9  A    between atoms: _20  and  _23
REMARK   10  A    between atoms: _23  and  _24
REMARK   11  A    between atoms: _27  and  _29
REMARK   12  A    between atoms: _29  and  _30
REMARK   13  A    between atoms: _29  and  _32
REMARK   14  A    between atoms: _32  and  _33
REMARK   15  A    between atoms: _36  and  _38
REMARK   16  A    between atoms: _38  and  _39
REMARK   17  A    between atoms: _38  and  _41
REMARK   18  A    between atoms: _41  and  _42
REMARK   19  A    between atoms: _45  and  _47
REMARK   20  A    between atoms: _47  and  _48
REMARK   21  A    between atoms: _47  and  _50
REMARK   22  A    between atoms: _50  and  _51
REMARK   23  A    between atoms: _54  and  _56
REMARK   24  A    between atoms: _56  and  _57
REMARK   25  A    between atoms: _56  and  _59
REMARK   26  A    between atoms: _59  and  _60
REMARK   27  A    between atoms: _63  and  _65
REMARK   28  A    between atoms: _65  and  _66
REMARK   29  A    between atoms: _68  and  _70
REMARK   30  A    between atoms: _70  and  _71
REMARK   31  A    between atoms: _74  and  _76
REMARK   32  A    between atoms: _76  and  _77
REMARK   33  A    between atoms: _76  and  _79
REMARK   34  A    between atoms: _79  and  _80
REMARK   35  A    between atoms: _83  and  _85
REMARK   36  A    between atoms: _85  and  _86
REMARK   37  A    between atoms: _85  and  _88
REMARK   38  A    between atoms: _88  and  _89
REMARK   39  A    between atoms: _92  and  _94
REMARK   40  A    between atoms: _94  and  _95
REMARK   41  A    between atoms: _94  and  _97
REMARK   42  A    between atoms: _97  and  _98
REMARK   43  A    between atoms: _101  and  _103
REMARK   44  A    between atoms: _103  and  _104
REMARK   45  A    between atoms: _103  and  _106
REMARK   46  A    between atoms: _109  and  _111
REMARK   47  A    between atoms: _111  and  _112
REMARK   48  A    between atoms: _111  and  _114
REMARK   49  A    between atoms: _114  and  _115
REMARK   50  A    between atoms: _115  and  _116
REMARK   51  A    between atoms: _116  and  _117
REMARK   52  A    between atoms: _117  and  _118
REMARK   53  A    between atoms: _122  and  _124
REMARK   54  A    between atoms: _124  and  _125
REMARK   55  A    between atoms: _124  and  _127
REMARK   56  A    between atoms: _127  and  _128
REMARK   57  A    between atoms: _128  and  _129
REMARK   58  A    between atoms: _131  and  _133
REMARK   59  A    between atoms: _133  and  _134
REMARK   60  A    between atoms: _133  and  _136
REMARK   61  A    between atoms: _136  and  _137
REMARK   62  A    between atoms: _140  and  _142
REMARK   63  A    between atoms: _142  and  _143
REMARK   64  A    between atoms: _145  and  _147
REMARK   65  A    between atoms: _147  and  _148
REMARK   66  A    between atoms: _150  and  _152
REMARK   67  A    between atoms: _152  and  _153
REMARK   68  A    between atoms: _152  and  _155
REMARK   69  A    between atoms: _155  and  _156
REMARK   70  A    between atoms: _159  and  _161
REMARK   71  A    between atoms: _161  and  _162
REMARK   72  A    between atoms: _164  and  _166
REMARK   73  A    between atoms: _166  and  _167
REMARK   74  A    between atoms: _169  and  _171
REMARK   75  A    between atoms: _171  and  _172
REMARK   76  A    between atoms: _171  and  _174
REMARK   77  A    between atoms: _174  and  _175
REMARK   78  A    between atoms: _181  and  _183
REMARK   79  A    between atoms: _183  and  _184
REMARK   80  A    between atoms: _183  and  _186
REMARK   81  A    between atoms: _186  and  _187
REMARK   82  A    between atoms: _190  and  _192
REMARK   83  A    between atoms: _192  and  _193
REMARK   84  A    between atoms: _192  and  _195
REMARK   85  A    between atoms: _198  and  _200
REMARK   86  A    between atoms: _200  and  _201
REMARK   87  A    between atoms: _200  and  _203
REMARK   88  A    between atoms: _203  and  _204
REMARK   89  A    between atoms: _207  and  _209
REMARK   90  A    between atoms: _209  and  _210
REMARK   91  A    between atoms: _209  and  _212
REMARK   92  A    between atoms: _212  and  _213
REMARK   93  A    between atoms: _217  and  _218
REMARK   94  A    between atoms: _223  and  _225
REMARK   95  A    between atoms: _225  and  _226
REMARK   96  A    between atoms: _225  and  _228
REMARK   97  A    between atoms: _231  and  _233
REMARK   98  A    between atoms: _233  and  _234
REMARK   99  A    between atoms: _233  and  _236
REMARK  100  A    between atoms: _236  and  _237
REMARK  101  A    between atoms: _242  and  _244
REMARK  102  A    between atoms: _244  and  _245
REMARK  103  A    between atoms: _244  and  _247
REMARK  104  A    between atoms: _247  and  _248
REMARK  105  A    between atoms: _251  and  _253
REMARK  106  A    between atoms: _253  and  _254
REMARK  107  A    between atoms: _253  and  _256
REMARK  108  A    between atoms: _256  and  _257
REMARK  109  A    between atoms: _260  and  _262
REMARK  110  A    between atoms: _262  and  _263
REMARK  111  A    between atoms: _265  and  _267
REMARK  112  A    between atoms: _267  and  _268
REMARK  113  A    between atoms: _267  and  _270
REMARK  114  A    between atoms: _270  and  _271
REMARK  115  A    between atoms: _271  and  _272
REMARK  116  A    between atoms: _272  and  _273
REMARK  117  A    between atoms: _282  and  _284
REMARK  118  A    between atoms: _284  and  _285
REMARK  119  A    between atoms: _284  and  _287
REMARK  120  A    between atoms: _287  and  _288
REMARK  121  A    between atoms: _293  and  _295
REMARK  122  A    between atoms: _295  and  _296
REMARK  123  A    between atoms: _295  and  _298
REMARK  124  A    between atoms: _298  and  _299
REMARK  125  A    between atoms: _299  and  _300
REMARK  126  A    between atoms: _300  and  _301
REMARK  127  A    between atoms: _310  and  _312
REMARK  128  A    between atoms: _312  and  _313
REMARK  129  A    between atoms: _312  and  _315
REMARK  130  A    between atoms: _315  and  _316
REMARK  131  A    between atoms: _319  and  _321
REMARK  132  A    between atoms: _321  and  _322
REMARK  133  A    between atoms: _321  and  _324
REMARK  134  A    between atoms: _324  and  _325
REMARK  135  A    between atoms: _328  and  _330
REMARK  136  A    between atoms: _330  and  _331
REMARK  137  A    between atoms: _330  and  _333
REMARK  138  A    between atoms: _333  and  _334
REMARK  139  A    between atoms: _337  and  _339
REMARK  140  A    between atoms: _339  and  _340
REMARK  141  A    between atoms: _339  and  _342
REMARK  142  A    between atoms: _342  and  _343
REMARK  143  A    between atoms: _346  and  _348
REMARK  144  A    between atoms: _348  and  _349
REMARK  145  A    between atoms: _348  and  _351
REMARK  146  A    between atoms: _351  and  _352
REMARK  147  A    between atoms: _355  and  _357
REMARK  148  A    between atoms: _357  and  _358
REMARK  149  A    between atoms: _360  and  _362
REMARK  150  A    between atoms: _362  and  _363
REMARK  151  A    between atoms: _366  and  _368
REMARK  152  A    between atoms: _368  and  _369
REMARK  153  A    between atoms: _368  and  _371
REMARK  154  A    between atoms: _371  and  _372
REMARK  155  A    between atoms: _375  and  _377
REMARK  156  A    between atoms: _377  and  _378
REMARK  157  A    between atoms: _377  and  _380
REMARK  158  A    between atoms: _380  and  _381
REMARK  159  A    between atoms: _384  and  _386
REMARK  160  A    between atoms: _386  and  _387
REMARK  161  A    between atoms: _386  and  _389
REMARK  162  A    between atoms: _389  and  _390
REMARK  163  A    between atoms: _393  and  _395
REMARK  164  A    between atoms: _395  and  _396
REMARK  165  A    between atoms: _395  and  _398
REMARK  166  A    between atoms: _401  and  _403
REMARK  167  A    between atoms: _403  and  _404
REMARK  168  A    between atoms: _403  and  _406
REMARK  169  A    between atoms: _406  and  _407
REMARK  170  A    between atoms: _410  and  _412
REMARK  171  A    between atoms: _412  and  _413
REMARK  172  A    between atoms: _412  and  _415
REMARK  173  A    between atoms: _415  and  _416
REMARK  174  A    between atoms: _416  and  _417
REMARK  175  A    between atoms: _417  and  _418
REMARK  176  A    between atoms: _418  and  _419
REMARK  177  A    between atoms: _423  and  _425
REMARK  178  A    between atoms: _425  and  _426
REMARK  179  A    between atoms: _425  and  _428
REMARK  180  A    between atoms: _428  and  _429
REMARK  181  A    between atoms: _429  and  _430
REMARK  182  A    between atoms: _432  and  _434
REMARK  183  A    between atoms: _434  and  _435
REMARK  184  A    between atoms: _434  and  _437
REMARK  185  A    between atoms: _437  and  _438
REMARK  186  A    between atoms: _441  and  _443
REMARK  187  A    between atoms: _443  and  _444
REMARK  188  A    between atoms: _446  and  _448
REMARK  189  A    between atoms: _448  and  _449
REMARK  190  A    between atoms: _451  and  _453
REMARK  191  A    between atoms: _453  and  _454
REMARK  192  A    between atoms: _453  and  _456
REMARK  193  A    between atoms: _456  and  _457
REMARK  194  A    between atoms: _460  and  _462
REMARK  195  A    between atoms: _462  and  _463
REMARK  196  A    between atoms: _465  and  _467
REMARK  197  A    between atoms: _467  and  _468
REMARK  198  A    between atoms: _470  and  _472
REMARK  199  A    between atoms: _472  and  _473
REMARK  200  A    between atoms: _472  and  _475
REMARK  201  A    between atoms: _475  and  _476
REMARK  202  A    between atoms: _482  and  _484
REMARK  203  A    between atoms: _484  and  _485
REMARK  204  A    between atoms: _484  and  _487
REMARK  205  A    between atoms: _487  and  _488
REMARK  206  A    between atoms: _491  and  _493
REMARK  207  A    between atoms: _493  and  _494
REMARK  208  A    between atoms: _493  and  _496
REMARK  209  A    between atoms: _499  and  _501
REMARK  210  A    between atoms: _501  and  _502
REMARK  211  A    between atoms: _501  and  _504
REMARK  212  A    between atoms: _504  and  _505
REMARK  213  A    between atoms: _508  and  _510
REMARK  214  A    between atoms: _510  and  _511
REMARK  215  A    between atoms: _510  and  _513
REMARK  216  A    between atoms: _513  and  _514
REMARK  217  A    between atoms: _518  and  _519
REMARK  218  A    between atoms: _524  and  _526
REMARK  219  A    between atoms: _526  and  _527
REMARK  220  A    between atoms: _526  and  _529
REMARK  221  A    between atoms: _532  and  _534
REMARK  222  A    between atoms: _534  and  _535
REMARK  223  A    between atoms: _534  and  _537
REMARK  224  A    between atoms: _537  and  _538
REMARK  225  A    between atoms: _543  and  _545
REMARK  226  A    between atoms: _545  and  _546
REMARK  227  A    between atoms: _545  and  _548
REMARK  228  A    between atoms: _548  and  _549
REMARK  229  A    between atoms: _552  and  _554
REMARK  230  A    between atoms: _554  and  _555
REMARK  231  A    between atoms: _554  and  _557
REMARK  232  A    between atoms: _557  and  _558
REMARK  233  A    between atoms: _561  and  _563
REMARK  234  A    between atoms: _563  and  _564
REMARK  235  A    between atoms: _566  and  _568
REMARK  236  A    between atoms: _568  and  _569
REMARK  237  A    between atoms: _568  and  _571
REMARK  238  A    between atoms: _571  and  _572
REMARK  239  A    between atoms: _572  and  _573
REMARK  240  A    between atoms: _573  and  _574
REMARK  241  A    between atoms: _583  and  _585
REMARK  242  A    between atoms: _585  and  _586
REMARK  243  A    between atoms: _585  and  _588
REMARK  244  A    between atoms: _588  and  _589
REMARK                            x       y       z     vdW  Elec       q    Type
REMARK                         _______ _______ _______ _____ _____    ______ ____
ROOT
ATOM      1  O   HOH     1       8.547  36.052   5.496  0.00  0.00    +0.000 OA
ENDROOT
TORSDOF 0
REMARK  Name = ../refined-set-2016/1d4j/1d4j_pocket.pdb
REMARK  244 active torsions:
REMARK  status: ('A' for Active; 'I' for Inactive)
REMARK    1  A    between atoms: _1  and  _3
REMARK    2  A    between atoms: _3  and  _4
REMARK    3  A    between atoms: _3  and  _6
REMARK    4  A    between atoms: _6  and  _7
REMARK    5  A    between atoms: _7  and  _8
REMARK    6  A    between atoms: _8  and  _9
REMARK    7  A    between atoms: _18  and  _20
REMARK    8  A    between atoms: _20  and  _21
REMARK    9  A    between atoms: _20  and  _23
REMARK   10  A    between atoms: _23  and  _24
REMARK   11  A    between atoms: _27  and  _29
REMARK   12  A    between atoms: _29  and  _30
REMARK   13  A    between atoms: _29  and  _32
REMARK   14  A    between atoms: _32  and  _33
REMARK   15  A    between atoms: _36  and  _38
REMARK   16  A    between atoms: _38  and  _39
REMARK   17  A    between atoms: _38  and  _41
REMARK   18  A    between atoms: _41  and  _42
REMARK   19  A    between atoms: _45  and  _47
REMARK   20  A    between atoms: _47  and  _48
REMARK   21  A    between atoms: _47  and  _50
REMARK   22  A    between atoms: _50  and  _51
REMARK   23  A    between atoms: _54  and  _56
REMARK   24  A    between atoms: _56  and  _57
REMARK   25  A    between atoms: _56  and  _59
REMARK   26  A    between atoms: _59  and  _60
REMARK   27  A    between atoms: _63  and  _65
REMARK   28  A    between atoms: _65  and  _66
REMARK   29  A    between atoms: _68  and  _70
REMARK   30  A    between atoms: _70  and  _71
REMARK   31  A    between atoms: _74  and  _76
REMARK   32  A    between atoms: _76  and  _77
REMARK   33  A    between atoms: _76  and  _79
REMARK   34  A    between atoms: _79  and  _80
REMARK   35  A    between atoms: _83  and  _85
REMARK   36  A    between atoms: _85  and  _86
REMARK   37  A    between atoms: _85  and  _88
REMARK   38  A    between atoms: _88  and  _89
REMARK   39  A    between atoms: _92  and  _94
REMARK   40  A    between atoms: _94  and  _95
REMARK   41  A    between atoms: _94  and  _97
REMARK   42  A    between atoms: _97  and  _98
REMARK   43  A    between atoms: _101  and  _103
REMARK   44  A    between atoms: _103  and  _104
REMARK   45  A    between atoms: _103  and  _106
REMARK   46  A    between atoms: _109  and  _111
REMARK   47  A    between atoms: _111  and  _112
REMARK   48  A    between atoms: _111  and  _114
REMARK   49  A    between atoms: _114  and  _115
REMARK   50  A    between atoms: _115  and  _116
REMARK   51  A    between atoms: _116  and  _117
REMARK   52  A    between atoms: _117  and  _118
REMARK   53  A    between atoms: _122  and  _124
REMARK   54  A    between atoms: _124  and  _125
REMARK   55  A    between atoms: _124  and  _127
REMARK   56  A    between atoms: _127  and  _128
REMARK   57  A    between atoms: _128  and  _129
REMARK   58  A    between atoms: _131  and  _133
REMARK   59  A    between atoms: _133  and  _134
REMARK   60  A    between atoms: _133  and  _136
REMARK   61  A    between atoms: _136  and  _137
REMARK   62  A    between atoms: _140  and  _142
REMARK   63  A    between atoms: _142  and  _143
REMARK   64  A    between atoms: _145  and  _147
REMARK   65  A    between atoms: _147  and  _148
REMARK   66  A    between atoms: _150  and  _152
REMARK   67  A    between atoms: _152  and  _153
REMARK   68  A    between atoms: _152  and  _155
REMARK   69  A    between atoms: _155  and  _156
REMARK   70  A    between atoms: _159  and  _161
REMARK   71  A    between atoms: _161  and  _162
REMARK   72  A    between atoms: _164  and  _166
REMARK   73  A    between atoms: _166  and  _167
REMARK   74  A    between atoms: _169  and  _171
REMARK   75  A    between atoms: _171  and  _172
REMARK   76  A    between atoms: _171  and  _174
REMARK   77  A    between atoms: _174  and  _175
REMARK   78  A    between atoms: _181  and  _183
REMARK   79  A    between atoms: _183  and  _184
REMARK   80  A    between atoms: _183  and  _186
REMARK   81  A    between atoms: _186  and  _187
REMARK   82  A    between atoms: _190  and  _192
REMARK   83  A    between atoms: _192  and  _193
REMARK   84  A    between atoms: _192  and  _195
REMARK   85  A    between atoms: _198  and  _200
REMARK   86  A    between atoms: _200  and  _201
REMARK   87  A    between atoms: _200  and  _203
REMARK   88  A    between atoms: _203  and  _204
REMARK   89  A    between atoms: _207  and  _209
REMARK   90  A    between atoms: _209  and  _210
REMARK   91  A    between atoms: _209  and  _212
REMARK   92  A    between atoms: _212  and  _213
REMARK   93  A    between atoms: _217  and  _218
REMARK   94  A    between atoms: _223  and  _225
REMARK   95  A    between atoms: _225  and  _226
REMARK   96  A    between atoms: _225  and  _228
REMARK   97  A    between atoms: _231  and  _233
REMARK   98  A    between atoms: _233  and  _234
REMARK   99  A    between atoms: _233  and  _236
REMARK  100  A    between atoms: _236  and  _237
REMARK  101  A    between atoms: _242  and  _244
REMARK  102  A    between atoms: _244  and  _245
REMARK  103  A    between atoms: _244  and  _247
REMARK  104  A    between atoms: _247  and  _248
REMARK  105  A    between atoms: _251  and  _253
REMARK  106  A    between atoms: _253  and  _254
REMARK  107  A    between atoms: _253  and  _256
REMARK  108  A    between atoms: _256  and  _257
REMARK  109  A    between atoms: _260  and  _262
REMARK  110  A    between atoms: _262  and  _263
REMARK  111  A    between atoms: _265  and  _267
REMARK  112  A    between atoms: _267  and  _268
REMARK  113  A    between atoms: _267  and  _270
REMARK  114  A    between atoms: _270  and  _271
REMARK  115  A    between atoms: _271  and  _272
REMARK  116  A    between atoms: _272  and  _273
REMARK  117  A    between atoms: _282  and  _284
REMARK  118  A    between atoms: _284  and  _285
REMARK  119  A    between atoms: _284  and  _287
REMARK  120  A    between atoms: _287  and  _288
REMARK  121  A    between atoms: _293  and  _295
REMARK  122  A    between atoms: _295  and  _296
REMARK  123  A    between atoms: _295  and  _298
REMARK  124  A    between atoms: _298  and  _299
REMARK  125  A    between atoms: _299  and  _300
REMARK  126  A    between atoms: _300  and  _301
REMARK  127  A    between atoms: _310  and  _312
REMARK  128  A    between atoms: _312  and  _313
REMARK  129  A    between atoms: _312  and  _315
REMARK  130  A    between atoms: _315  and  _316
REMARK  131  A    between atoms: _319  and  _321
REMARK  132  A    between atoms: _321  and  _322
REMARK  133  A    between atoms: _321  and  _324
REMARK  134  A    between atoms: _324  and  _325
REMARK  135  A    between atoms: _328  and  _330
REMARK  136  A    between atoms: _330  and  _331
REMARK  137  A    between atoms: _330  and  _333
REMARK  138  A    between atoms: _333  and  _334
REMARK  139  A    between atoms: _337  and  _339
REMARK  140  A    between atoms: _339  and  _340
REMARK  141  A    between atoms: _339  and  _342
REMARK  142  A    between atoms: _342  and  _343
REMARK  143  A    between atoms: _346  and  _348
REMARK  144  A    between atoms: _348  and  _349
REMARK  145  A    between atoms: _348  and  _351
REMARK  146  A    between atoms: _351  and  _352
REMARK  147  A    between atoms: _355  and  _357
REMARK  148  A    between atoms: _357  and  _358
REMARK  149  A    between atoms: _360  and  _362
REMARK  150  A    between atoms: _362  and  _363
REMARK  151  A    between atoms: _366  and  _368
REMARK  152  A    between atoms: _368  and  _369
REMARK  153  A    between atoms: _368  and  _371
REMARK  154  A    between atoms: _371  and  _372
REMARK  155  A    between atoms: _375  and  _377
REMARK  156  A    between atoms: _377  and  _378
REMARK  157  A    between atoms: _377  and  _380
REMARK  158  A    between atoms: _380  and  _381
REMARK  159  A    between atoms: _384  and  _386
REMARK  160  A    between atoms: _386  and  _387
REMARK  161  A    between atoms: _386  and  _389
REMARK  162  A    between atoms: _389  and  _390
REMARK  163  A    between atoms: _393  and  _395
REMARK  164  A    between atoms: _395  and  _396
REMARK  165  A    between atoms: _395  and  _398
REMARK  166  A    between atoms: _401  and  _403
REMARK  167  A    between atoms: _403  and  _404
REMARK  168  A    between atoms: _403  and  _406
REMARK  169  A    between atoms: _406  and  _407
REMARK  170  A    between atoms: _410  and  _412
REMARK  171  A    between atoms: _412  and  _413
REMARK  172  A    between atoms: _412  and  _415
REMARK  173  A    between atoms: _415  and  _416
REMARK  174  A    between atoms: _416  and  _417
REMARK  175  A    between atoms: _417  and  _418
REMARK  176  A    between atoms: _418  and  _419
REMARK  177  A    between atoms: _423  and  _425
REMARK  178  A    between atoms: _425  and  _426
REMARK  179  A    between atoms: _425  and  _428
REMARK  180  A    between atoms: _428  and  _429
REMARK  181  A    between atoms: _429  and  _430
REMARK  182  A    between atoms: _432  and  _434
REMARK  183  A    between atoms: _434  and  _435
REMARK  184  A    between atoms: _434  and  _437
REMARK  185  A    between atoms: _437  and  _438
REMARK  186  A    between atoms: _441  and  _443
REMARK  187  A    between atoms: _443  and  _444
REMARK  188  A    between atoms: _446  and  _448
REMARK  189  A    between atoms: _448  and  _449
REMARK  190  A    between atoms: _451  and  _453
REMARK  191  A    between atoms: _453  and  _454
REMARK  192  A    between atoms: _453  and  _456
REMARK  193  A    between atoms: _456  and  _457
REMARK  194  A    between atoms: _460  and  _462
REMARK  195  A    between atoms: _462  and  _463
REMARK  196  A    between atoms: _465  and  _467
REMARK  197  A    between atoms: _467  and  _468
REMARK  198  A    between atoms: _470  and  _472
REMARK  199  A    between atoms: _472  and  _473
REMARK  200  A    between atoms: _472  and  _475
REMARK  201  A    between atoms: _475  and  _476
REMARK  202  A    between atoms: _482  and  _484
REMARK  203  A    between atoms: _484  and  _485
REMARK  204  A    between atoms: _484  and  _487
REMARK  205  A    between atoms: _487  and  _488
REMARK  206  A    between atoms: _491  and  _493
REMARK  207  A    between atoms: _493  and  _494
REMARK  208  A    between atoms: _493  and  _496
REMARK  209  A    between atoms: _499  and  _501
REMARK  210  A    between atoms: _501  and  _502
REMARK  211  A    between atoms: _501  and  _504
REMARK  212  A    between atoms: _504  and  _505
REMARK  213  A    between atoms: _508  and  _510
REMARK  214  A    between atoms: _510  and  _511
REMARK  215  A    between atoms: _510  and  _513
REMARK  216  A    between atoms: _513  and  _514
REMARK  217  A    between atoms: _518  and  _519
REMARK  218  A    between atoms: _524  and  _526
REMARK  219  A    between atoms: _526  and  _527
REMARK  220  A    between atoms: _526  and  _529
REMARK  221  A    between atoms: _532  and  _534
REMARK  222  A    between atoms: _534  and  _535
REMARK  223  A    between atoms: _534  and  _537
REMARK  224  A    between atoms: _537  and  _538
REMARK  225  A    between atoms: _543  and  _545
REMARK  226  A    between atoms: _545  and  _546
REMARK  227  A    between atoms: _545  and  _548
REMARK  228  A    between atoms: _548  and  _549
REMARK  229  A    between atoms: _552  and  _554
REMARK  230  A    between atoms: _554  and  _555
REMARK  231  A    between atoms: _554  and  _557
REMARK  232  A    between atoms: _557  and  _558
REMARK  233  A    between atoms: _561  and  _563
REMARK  234  A    between atoms: _563  and  _564
REMARK  235  A    between atoms: _566  and  _568
REMARK  236  A    between atoms: _568  and  _569
REMARK  237  A    between atoms: _568  and  _571
REMARK  238  A    between atoms: _571  and  _572
REMARK  239  A    between atoms: _572  and  _573
REMARK  240  A    between atoms: _573  and  _574
REMARK  241  A    between atoms: _583  and  _585
REMARK  242  A    between atoms: _585  and  _586
REMARK  243  A    between atoms: _585  and  _588
REMARK  244  A    between atoms: _588  and  _589
REMARK                            x       y       z     vdW  Elec       q    Type
REMARK                         _______ _______ _______ _____ _____    ______ ____
ROOT
ATOM      1  O   HOH     1       4.397  30.517   5.971  0.00  0.00    +0.000 OA
ENDROOT
TORSDOF 0
REMARK  Name = ../refined-set-2016/1d4j/1d4j_pocket.pdb
REMARK  244 active torsions:
REMARK  status: ('A' for Active; 'I' for Inactive)
REMARK    1  A    between atoms: _1  and  _3
REMARK    2  A    between atoms: _3  and  _4
REMARK    3  A    between atoms: _3  and  _6
REMARK    4  A    between atoms: _6  and  _7
REMARK    5  A    between atoms: _7  and  _8
REMARK    6  A    between atoms: _8  and  _9
REMARK    7  A    between atoms: _18  and  _20
REMARK    8  A    between atoms: _20  and  _21
REMARK    9  A    between atoms: _20  and  _23
REMARK   10  A    between atoms: _23  and  _24
REMARK   11  A    between atoms: _27  and  _29
REMARK   12  A    between atoms: _29  and  _30
REMARK   13  A    between atoms: _29  and  _32
REMARK   14  A    between atoms: _32  and  _33
REMARK   15  A    between atoms: _36  and  _38
REMARK   16  A    between atoms: _38  and  _39
REMARK   17  A    between atoms: _38  and  _41
REMARK   18  A    between atoms: _41  and  _42
REMARK   19  A    between atoms: _45  and  _47
REMARK   20  A    between atoms: _47  and  _48
REMARK   21  A    between atoms: _47  and  _50
REMARK   22  A    between atoms: _50  and  _51
REMARK   23  A    between atoms: _54  and  _56
REMARK   24  A    between atoms: _56  and  _57
REMARK   25  A    between atoms: _56  and  _59
REMARK   26  A    between atoms: _59  and  _60
REMARK   27  A    between atoms: _63  and  _65
REMARK   28  A    between atoms: _65  and  _66
REMARK   29  A    between atoms: _68  and  _70
REMARK   30  A    between atoms: _70  and  _71
REMARK   31  A    between atoms: _74  and  _76
REMARK   32  A    between atoms: _76  and  _77
REMARK   33  A    between atoms: _76  and  _79
REMARK   34  A    between atoms: _79  and  _80
REMARK   35  A    between atoms: _83  and  _85
REMARK   36  A    between atoms: _85  and  _86
REMARK   37  A    between atoms: _85  and  _88
REMARK   38  A    between atoms: _88  and  _89
REMARK   39  A    between atoms: _92  and  _94
REMARK   40  A    between atoms: _94  and  _95
REMARK   41  A    between atoms: _94  and  _97
REMARK   42  A    between atoms: _97  and  _98
REMARK   43  A    between atoms: _101  and  _103
REMARK   44  A    between atoms: _103  and  _104
REMARK   45  A    between atoms: _103  and  _106
REMARK   46  A    between atoms: _109  and  _111
REMARK   47  A    between atoms: _111  and  _112
REMARK   48  A    between atoms: _111  and  _114
REMARK   49  A    between atoms: _114  and  _115
REMARK   50  A    between atoms: _115  and  _116
REMARK   51  A    between atoms: _116  and  _117
REMARK   52  A    between atoms: _117  and  _118
REMARK   53  A    between atoms: _122  and  _124
REMARK   54  A    between atoms: _124  and  _125
REMARK   55  A    between atoms: _124  and  _127
REMARK   56  A    between atoms: _127  and  _128
REMARK   57  A    between atoms: _128  and  _129
REMARK   58  A    between atoms: _131  and  _133
REMARK   59  A    between atoms: _133  and  _134
REMARK   60  A    between atoms: _133  and  _136
REMARK   61  A    between atoms: _136  and  _137
REMARK   62  A    between atoms: _140  and  _142
REMARK   63  A    between atoms: _142  and  _143
REMARK   64  A    between atoms: _145  and  _147
REMARK   65  A    between atoms: _147  and  _148
REMARK   66  A    between atoms: _150  and  _152
REMARK   67  A    between atoms: _152  and  _153
REMARK   68  A    between atoms: _152  and  _155
REMARK   69  A    between atoms: _155  and  _156
REMARK   70  A    between atoms: _159  and  _161
REMARK   71  A    between atoms: _161  and  _162
REMARK   72  A    between atoms: _164  and  _166
REMARK   73  A    between atoms: _166  and  _167
REMARK   74  A    between atoms: _169  and  _171
REMARK   75  A    between atoms: _171  and  _172
REMARK   76  A    between atoms: _171  and  _174
REMARK   77  A    between atoms: _174  and  _175
REMARK   78  A    between atoms: _181  and  _183
REMARK   79  A    between atoms: _183  and  _184
REMARK   80  A    between atoms: _183  and  _186
REMARK   81  A    between atoms: _186  and  _187
REMARK   82  A    between atoms: _190  and  _192
REMARK   83  A    between atoms: _192  and  _193
REMARK   84  A    between atoms: _192  and  _195
REMARK   85  A    between atoms: _198  and  _200
REMARK   86  A    between atoms: _200  and  _201
REMARK   87  A    between atoms: _200  and  _203
REMARK   88  A    between atoms: _203  and  _204
REMARK   89  A    between atoms: _207  and  _209
REMARK   90  A    between atoms: _209  and  _210
REMARK   91  A    between atoms: _209  and  _212
REMARK   92  A    between atoms: _212  and  _213
REMARK   93  A    between atoms: _217  and  _218
REMARK   94  A    between atoms: _223  and  _225
REMARK   95  A    between atoms: _225  and  _226
REMARK   96  A    between atoms: _225  and  _228
REMARK   97  A    between atoms: _231  and  _233
REMARK   98  A    between atoms: _233  and  _234
REMARK   99  A    between atoms: _233  and  _236
REMARK  100  A    between atoms: _236  and  _237
REMARK  101  A    between atoms: _242  and  _244
REMARK  102  A    between atoms: _244  and  _245
REMARK  103  A    between atoms: _244  and  _247
REMARK  104  A    between atoms: _247  and  _248
REMARK  105  A    between atoms: _251  and  _253
REMARK  106  A    between atoms: _253  and  _254
REMARK  107  A    between atoms: _253  and  _256
REMARK  108  A    between atoms: _256  and  _257
REMARK  109  A    between atoms: _260  and  _262
REMARK  110  A    between atoms: _262  and  _263
REMARK  111  A    between atoms: _265  and  _267
REMARK  112  A    between atoms: _267  and  _268
REMARK  113  A    between atoms: _267  and  _270
REMARK  114  A    between atoms: _270  and  _271
REMARK  115  A    between atoms: _271  and  _272
REMARK  116  A    between atoms: _272  and  _273
REMARK  117  A    between atoms: _282  and  _284
REMARK  118  A    between atoms: _284  and  _285
REMARK  119  A    between atoms: _284  and  _287
REMARK  120  A    between atoms: _287  and  _288
REMARK  121  A    between atoms: _293  and  _295
REMARK  122  A    between atoms: _295  and  _296
REMARK  123  A    between atoms: _295  and  _298
REMARK  124  A    between atoms: _298  and  _299
REMARK  125  A    between atoms: _299  and  _300
REMARK  126  A    between atoms: _300  and  _301
REMARK  127  A    between atoms: _310  and  _312
REMARK  128  A    between atoms: _312  and  _313
REMARK  129  A    between atoms: _312  and  _315
REMARK  130  A    between atoms: _315  and  _316
REMARK  131  A    between atoms: _319  and  _321
REMARK  132  A    between atoms: _321  and  _322
REMARK  133  A    between atoms: _321  and  _324
REMARK  134  A    between atoms: _324  and  _325
REMARK  135  A    between atoms: _328  and  _330
REMARK  136  A    between atoms: _330  and  _331
REMARK  137  A    between atoms: _330  and  _333
REMARK  138  A    between atoms: _333  and  _334
REMARK  139  A    between atoms: _337  and  _339
REMARK  140  A    between atoms: _339  and  _340
REMARK  141  A    between atoms: _339  and  _342
REMARK  142  A    between atoms: _342  and  _343
REMARK  143  A    between atoms: _346  and  _348
REMARK  144  A    between atoms: _348  and  _349
REMARK  145  A    between atoms: _348  and  _351
REMARK  146  A    between atoms: _351  and  _352
REMARK  147  A    between atoms: _355  and  _357
REMARK  148  A    between atoms: _357  and  _358
REMARK  149  A    between atoms: _360  and  _362
REMARK  150  A    between atoms: _362  and  _363
REMARK  151  A    between atoms: _366  and  _368
REMARK  152  A    between atoms: _368  and  _369
REMARK  153  A    between atoms: _368  and  _371
REMARK  154  A    between atoms: _371  and  _372
REMARK  155  A    between atoms: _375  and  _377
REMARK  156  A    between atoms: _377  and  _378
REMARK  157  A    between atoms: _377  and  _380
REMARK  158  A    between atoms: _380  and  _381
REMARK  159  A    between atoms: _384  and  _386
REMARK  160  A    between atoms: _386  and  _387
REMARK  161  A    between atoms: _386  and  _389
REMARK  162  A    between atoms: _389  and  _390
REMARK  163  A    between atoms: _393  and  _395
REMARK  164  A    between atoms: _395  and  _396
REMARK  165  A    between atoms: _395  and  _398
REMARK  166  A    between atoms: _401  and  _403
REMARK  167  A    between atoms: _403  and  _404
REMARK  168  A    between atoms: _403  and  _406
REMARK  169  A    between atoms: _406  and  _407
REMARK  170  A    between atoms: _410  and  _412
REMARK  171  A    between atoms: _412  and  _413
REMARK  172  A    between atoms: _412  and  _415
REMARK  173  A    between atoms: _415  and  _416
REMARK  174  A    between atoms: _416  and  _417
REMARK  175  A    between atoms: _417  and  _418
REMARK  176  A    between atoms: _418  and  _419
REMARK  177  A    between atoms: _423  and  _425
REMARK  178  A    between atoms: _425  and  _426
REMARK  179  A    between atoms: _425  and  _428
REMARK  180  A    between atoms: _428  and  _429
REMARK  181  A    between atoms: _429  and  _430
REMARK  182  A    between atoms: _432  and  _434
REMARK  183  A    between atoms: _434  and  _435
REMARK  184  A    between atoms: _434  and  _437
REMARK  185  A    between atoms: _437  and  _438
REMARK  186  A    between atoms: _441  and  _443
REMARK  187  A    between atoms: _443  and  _444
REMARK  188  A    between atoms: _446  and  _448
REMARK  189  A    between atoms: _448  and  _449
REMARK  190  A    between atoms: _451  and  _453
REMARK  191  A    between atoms: _453  and  _454
REMARK  192  A    between atoms: _453  and  _456
REMARK  193  A    between atoms: _456  and  _457
REMARK  194  A    between atoms: _460  and  _462
REMARK  195  A    between atoms: _462  and  _463
REMARK  196  A    between atoms: _465  and  _467
REMARK  197  A    between atoms: _467  and  _468
REMARK  198  A    between atoms: _470  and  _472
REMARK  199  A    between atoms: _472  and  _473
REMARK  200  A    between atoms: _472  and  _475
REMARK  201  A    between atoms: _475  and  _476
REMARK  202  A    between atoms: _482  and  _484
REMARK  203  A    between atoms: _484  and  _485
REMARK  204  A    between atoms: _484  and  _487
REMARK  205  A    between atoms: _487  and  _488
REMARK  206  A    between atoms: _491  and  _493
REMARK  207  A    between atoms: _493  and  _494
REMARK  208  A    between atoms: _493  and  _496
REMARK  209  A    between atoms: _499  and  _501
REMARK  210  A    between atoms: _501  and  _502
REMARK  211  A    between atoms: _501  and  _504
REMARK  212  A    between atoms: _504  and  _505
REMARK  213  A    between atoms: _508  and  _510
REMARK  214  A    between atoms: _510  and  _511
REMARK  215  A    between atoms: _510  and  _513
REMARK  216  A    between atoms: _513  and  _514
REMARK  217  A    between atoms: _518  and  _519
REMARK  218  A    between atoms: _524  and  _526
REMARK  219  A    between atoms: _526  and  _527
REMARK  220  A    between atoms: _526  and  _529
REMARK  221  A    between atoms: _532  and  _534
REMARK  222  A    between atoms: _534  and  _535
REMARK  223  A    between atoms: _534  and  _537
REMARK  224  A    between atoms: _537  and  _538
REMARK  225  A    between atoms: _543  and  _545
REMARK  226  A    between atoms: _545  and  _546
REMARK  227  A    between atoms: _545  and  _548
REMARK  228  A    between atoms: _548  and  _549
REMARK  229  A    between atoms: _552  and  _554
REMARK  230  A    between atoms: _554  and  _555
REMARK  231  A    between atoms: _554  and  _557
REMARK  232  A    between atoms: _557  and  _558
REMARK  233  A    between atoms: _561  and  _563
REMARK  234  A    between atoms: _563  and  _564
REMARK  235  A    between atoms: _566  and  _568
REMARK  236  A    between atoms: _568  and  _569
REMARK  237  A    between atoms: _568  and  _571
REMARK  238  A    between atoms: _571  and  _572
REMARK  239  A    between atoms: _572  and  _573
REMARK  240  A    between atoms: _573  and  _574
REMARK  241  A    between atoms: _583  and  _585
REMARK  242  A    between atoms: _585  and  _586
REMARK  243  A    between atoms: _585  and  _588
REMARK  244  A    between atoms: _588  and  _589
REMARK                            x       y       z     vdW  Elec       q    Type
REMARK                         _______ _______ _______ _____ _____    ______ ____
ROOT
ATOM      1  O   HOH     1       5.111  31.034   9.481  0.00  0.00    +0.000 OA
ENDROOT
TORSDOF 0
REMARK  Name = ../refined-set-2016/1d4j/1d4j_pocket.pdb
REMARK  244 active torsions:
REMARK  status: ('A' for Active; 'I' for Inactive)
REMARK    1  A    between atoms: _1  and  _3
REMARK    2  A    between atoms: _3  and  _4
REMARK    3  A    between atoms: _3  and  _6
REMARK    4  A    between atoms: _6  and  _7
REMARK    5  A    between atoms: _7  and  _8
REMARK    6  A    between atoms: _8  and  _9
REMARK    7  A    between atoms: _18  and  _20
REMARK    8  A    between atoms: _20  and  _21
REMARK    9  A    between atoms: _20  and  _23
REMARK   10  A    between atoms: _23  and  _24
REMARK   11  A    between atoms: _27  and  _29
REMARK   12  A    between atoms: _29  and  _30
REMARK   13  A    between atoms: _29  and  _32
REMARK   14  A    between atoms: _32  and  _33
REMARK   15  A    between atoms: _36  and  _38
REMARK   16  A    between atoms: _38  and  _39
REMARK   17  A    between atoms: _38  and  _41
REMARK   18  A    between atoms: _41  and  _42
REMARK   19  A    between atoms: _45  and  _47
REMARK   20  A    between atoms: _47  and  _48
REMARK   21  A    between atoms: _47  and  _50
REMARK   22  A    between atoms: _50  and  _51
REMARK   23  A    between atoms: _54  and  _56
REMARK   24  A    between atoms: _56  and  _57
REMARK   25  A    between atoms: _56  and  _59
REMARK   26  A    between atoms: _59  and  _60
REMARK   27  A    between atoms: _63  and  _65
REMARK   28  A    between atoms: _65  and  _66
REMARK   29  A    between atoms: _68  and  _70
REMARK   30  A    between atoms: _70  and  _71
REMARK   31  A    between atoms: _74  and  _76
REMARK   32  A    between atoms: _76  and  _77
REMARK   33  A    between atoms: _76  and  _79
REMARK   34  A    between atoms: _79  and  _80
REMARK   35  A    between atoms: _83  and  _85
REMARK   36  A    between atoms: _85  and  _86
REMARK   37  A    between atoms: _85  and  _88
REMARK   38  A    between atoms: _88  and  _89
REMARK   39  A    between atoms: _92  and  _94
REMARK   40  A    between atoms: _94  and  _95
REMARK   41  A    between atoms: _94  and  _97
REMARK   42  A    between atoms: _97  and  _98
REMARK   43  A    between atoms: _101  and  _103
REMARK   44  A    between atoms: _103  and  _104
REMARK   45  A    between atoms: _103  and  _106
REMARK   46  A    between atoms: _109  and  _111
REMARK   47  A    between atoms: _111  and  _112
REMARK   48  A    between atoms: _111  and  _114
REMARK   49  A    between atoms: _114  and  _115
REMARK   50  A    between atoms: _115  and  _116
REMARK   51  A    between atoms: _116  and  _117
REMARK   52  A    between atoms: _117  and  _118
REMARK   53  A    between atoms: _122  and  _124
REMARK   54  A    between atoms: _124  and  _125
REMARK   55  A    between atoms: _124  and  _127
REMARK   56  A    between atoms: _127  and  _128
REMARK   57  A    between atoms: _128  and  _129
REMARK   58  A    between atoms: _131  and  _133
REMARK   59  A    between atoms: _133  and  _134
REMARK   60  A    between atoms: _133  and  _136
REMARK   61  A    between atoms: _136  and  _137
REMARK   62  A    between atoms: _140  and  _142
REMARK   63  A    between atoms: _142  and  _143
REMARK   64  A    between atoms: _145  and  _147
REMARK   65  A    between atoms: _147  and  _148
REMARK   66  A    between atoms: _150  and  _152
REMARK   67  A    between atoms: _152  and  _153
REMARK   68  A    between atoms: _152  and  _155
REMARK   69  A    between atoms: _155  and  _156
REMARK   70  A    between atoms: _159  and  _161
REMARK   71  A    between atoms: _161  and  _162
REMARK   72  A    between atoms: _164  and  _166
REMARK   73  A    between atoms: _166  and  _167
REMARK   74  A    between atoms: _169  and  _171
REMARK   75  A    between atoms: _171  and  _172
REMARK   76  A    between atoms: _171  and  _174
REMARK   77  A    between atoms: _174  and  _175
REMARK   78  A    between atoms: _181  and  _183
REMARK   79  A    between atoms: _183  and  _184
REMARK   80  A    between atoms: _183  and  _186
REMARK   81  A    between atoms: _186  and  _187
REMARK   82  A    between atoms: _190  and  _192
REMARK   83  A    between atoms: _192  and  _193
REMARK   84  A    between atoms: _192  and  _195
REMARK   85  A    between atoms: _198  and  _200
REMARK   86  A    between atoms: _200  and  _201
REMARK   87  A    between atoms: _200  and  _203
REMARK   88  A    between atoms: _203  and  _204
REMARK   89  A    between atoms: _207  and  _209
REMARK   90  A    between atoms: _209  and  _210
REMARK   91  A    between atoms: _209  and  _212
REMARK   92  A    between atoms: _212  and  _213
REMARK   93  A    between atoms: _217  and  _218
REMARK   94  A    between atoms: _223  and  _225
REMARK   95  A    between atoms: _225  and  _226
REMARK   96  A    between atoms: _225  and  _228
REMARK   97  A    between atoms: _231  and  _233
REMARK   98  A    between atoms: _233  and  _234
REMARK   99  A    between atoms: _233  and  _236
REMARK  100  A    between atoms: _236  and  _237
REMARK  101  A    between atoms: _242  and  _244
REMARK  102  A    between atoms: _244  and  _245
REMARK  103  A    between atoms: _244  and  _247
REMARK  104  A    between atoms: _247  and  _248
REMARK  105  A    between atoms: _251  and  _253
REMARK  106  A    between atoms: _253  and  _254
REMARK  107  A    between atoms: _253  and  _256
REMARK  108  A    between atoms: _256  and  _257
REMARK  109  A    between atoms: _260  and  _262
REMARK  110  A    between atoms: _262  and  _263
REMARK  111  A    between atoms: _265  and  _267
REMARK  112  A    between atoms: _267  and  _268
REMARK  113  A    between atoms: _267  and  _270
REMARK  114  A    between atoms: _270  and  _271
REMARK  115  A    between atoms: _271  and  _272
REMARK  116  A    between atoms: _272  and  _273
REMARK  117  A    between atoms: _282  and  _284
REMARK  118  A    between atoms: _284  and  _285
REMARK  119  A    between atoms: _284  and  _287
REMARK  120  A    between atoms: _287  and  _288
REMARK  121  A    between atoms: _293  and  _295
REMARK  122  A    between atoms: _295  and  _296
REMARK  123  A    between atoms: _295  and  _298
REMARK  124  A    between atoms: _298  and  _299
REMARK  125  A    between atoms: _299  and  _300
REMARK  126  A    between atoms: _300  and  _301
REMARK  127  A    between atoms: _310  and  _312
REMARK  128  A    between atoms: _312  and  _313
REMARK  129  A    between atoms: _312  and  _315
REMARK  130  A    between atoms: _315  and  _316
REMARK  131  A    between atoms: _319  and  _321
REMARK  132  A    between atoms: _321  and  _322
REMARK  133  A    between atoms: _321  and  _324
REMARK  134  A    between atoms: _324  and  _325
REMARK  135  A    between atoms: _328  and  _330
REMARK  136  A    between atoms: _330  and  _331
REMARK  137  A    between atoms: _330  and  _333
REMARK  138  A    between atoms: _333  and  _334
REMARK  139  A    between atoms: _337  and  _339
REMARK  140  A    between atoms: _339  and  _340
REMARK  141  A    between atoms: _339  and  _342
REMARK  142  A    between atoms: _342  and  _343
REMARK  143  A    between atoms: _346  and  _348
REMARK  144  A    between atoms: _348  and  _349
REMARK  145  A    between atoms: _348  and  _351
REMARK  146  A    between atoms: _351  and  _352
REMARK  147  A    between atoms: _355  and  _357
REMARK  148  A    between atoms: _357  and  _358
REMARK  149  A    between atoms: _360  and  _362
REMARK  150  A    between atoms: _362  and  _363
REMARK  151  A    between atoms: _366  and  _368
REMARK  152  A    between atoms: _368  and  _369
REMARK  153  A    between atoms: _368  and  _371
REMARK  154  A    between atoms: _371  and  _372
REMARK  155  A    between atoms: _375  and  _377
REMARK  156  A    between atoms: _377  and  _378
REMARK  157  A    between atoms: _377  and  _380
REMARK  158  A    between atoms: _380  and  _381
REMARK  159  A    between atoms: _384  and  _386
REMARK  160  A    between atoms: _386  and  _387
REMARK  161  A    between atoms: _386  and  _389
REMARK  162  A    between atoms: _389  and  _390
REMARK  163  A    between atoms: _393  and  _395
REMARK  164  A    between atoms: _395  and  _396
REMARK  165  A    between atoms: _395  and  _398
REMARK  166  A    between atoms: _401  and  _403
REMARK  167  A    between atoms: _403  and  _404
REMARK  168  A    between atoms: _403  and  _406
REMARK  169  A    between atoms: _406  and  _407
REMARK  170  A    between atoms: _410  and  _412
REMARK  171  A    between atoms: _412  and  _413
REMARK  172  A    between atoms: _412  and  _415
REMARK  173  A    between atoms: _415  and  _416
REMARK  174  A    between atoms: _416  and  _417
REMARK  175  A    between atoms: _417  and  _418
REMARK  176  A    between atoms: _418  and  _419
REMARK  177  A    between atoms: _423  and  _425
REMARK  178  A    between atoms: _425  and  _426
REMARK  179  A    between atoms: _425  and  _428
REMARK  180  A    between atoms: _428  and  _429
REMARK  181  A    between atoms: _429  and  _430
REMARK  182  A    between atoms: _432  and  _434
REMARK  183  A    between atoms: _434  and  _435
REMARK  184  A    between atoms: _434  and  _437
REMARK  185  A    between atoms: _437  and  _438
REMARK  186  A    between atoms: _441  and  _443
REMARK  187  A    between atoms: _443  and  _444
REMARK  188  A    between atoms: _446  and  _448
REMARK  189  A    between atoms: _448  and  _449
REMARK  190  A    between atoms: _451  and  _453
REMARK  191  A    between atoms: _453  and  _454
REMARK  192  A    between atoms: _453  and  _456
REMARK  193  A    between atoms: _456  and  _457
REMARK  194  A    between atoms: _460  and  _462
REMARK  195  A    between atoms: _462  and  _463
REMARK  196  A    between atoms: _465  and  _467
REMARK  197  A    between atoms: _467  and  _468
REMARK  198  A    between atoms: _470  and  _472
REMARK  199  A    between atoms: _472  and  _473
REMARK  200  A    between atoms: _472  and  _475
REMARK  201  A    between atoms: _475  and  _476
REMARK  202  A    between atoms: _482  and  _484
REMARK  203  A    between atoms: _484  and  _485
REMARK  204  A    between atoms: _484  and  _487
REMARK  205  A    between atoms: _487  and  _488
REMARK  206  A    between atoms: _491  and  _493
REMARK  207  A    between atoms: _493  and  _494
REMARK  208  A    between atoms: _493  and  _496
REMARK  209  A    between atoms: _499  and  _501
REMARK  210  A    between atoms: _501  and  _502
REMARK  211  A    between atoms: _501  and  _504
REMARK  212  A    between atoms: _504  and  _505
REMARK  213  A    between atoms: _508  and  _510
REMARK  214  A    between atoms: _510  and  _511
REMARK  215  A    between atoms: _510  and  _513
REMARK  216  A    between atoms: _513  and  _514
REMARK  217  A    between atoms: _518  and  _519
REMARK  218  A    between atoms: _524  and  _526
REMARK  219  A    between atoms: _526  and  _527
REMARK  220  A    between atoms: _526  and  _529
REMARK  221  A    between atoms: _532  and  _534
REMARK  222  A    between atoms: _534  and  _535
REMARK  223  A    between atoms: _534  and  _537
REMARK  224  A    between atoms: _537  and  _538
REMARK  225  A    between atoms: _543  and  _545
REMARK  226  A    between atoms: _545  and  _546
REMARK  227  A    between atoms: _545  and  _548
REMARK  228  A    between atoms: _548  and  _549
REMARK  229  A    between atoms: _552  and  _554
REMARK  230  A    between atoms: _554  and  _555
REMARK  231  A    between atoms: _554  and  _557
REMARK  232  A    between atoms: _557  and  _558
REMARK  233  A    between atoms: _561  and  _563
REMARK  234  A    between atoms: _563  and  _564
REMARK  235  A    between atoms: _566  and  _568
REMARK  236  A    between atoms: _568  and  _569
REMARK  237  A    between atoms: _568  and  _571
REMARK  238  A    between atoms: _571  and  _572
REMARK  239  A    between atoms: _572  and  _573
REMARK  240  A    between atoms: _573  and  _574
REMARK  241  A    between atoms: _583  and  _585
REMARK  242  A    between atoms: _585  and  _586
REMARK  243  A    between atoms: _585  and  _588
REMARK  244  A    between atoms: _588  and  _589
REMARK                            x       y       z     vdW  Elec       q    Type
REMARK                         _______ _______ _______ _____ _____    ______ ____
ROOT
ATOM      1  O   HOH     1       3.172  25.963   7.113  0.00  0.00    +0.000 OA
ENDROOT
TORSDOF 0
REMARK  Name = ../refined-set-2016/1d4j/1d4j_pocket.pdb
REMARK  244 active torsions:
REMARK  status: ('A' for Active; 'I' for Inactive)
REMARK    1  A    between atoms: _1  and  _3
REMARK    2  A    between atoms: _3  and  _4
REMARK    3  A    between atoms: _3  and  _6
REMARK    4  A    between atoms: _6  and  _7
REMARK    5  A    between atoms: _7  and  _8
REMARK    6  A    between atoms: _8  and  _9
REMARK    7  A    between atoms: _18  and  _20
REMARK    8  A    between atoms: _20  and  _21
REMARK    9  A    between atoms: _20  and  _23
REMARK   10  A    between atoms: _23  and  _24
REMARK   11  A    between atoms: _27  and  _29
REMARK   12  A    between atoms: _29  and  _30
REMARK   13  A    between atoms: _29  and  _32
REMARK   14  A    between atoms: _32  and  _33
REMARK   15  A    between atoms: _36  and  _38
REMARK   16  A    between atoms: _38  and  _39
REMARK   17  A    between atoms: _38  and  _41
REMARK   18  A    between atoms: _41  and  _42
REMARK   19  A    between atoms: _45  and  _47
REMARK   20  A    between atoms: _47  and  _48
REMARK   21  A    between atoms: _47  and  _50
REMARK   22  A    between atoms: _50  and  _51
REMARK   23  A    between atoms: _54  and  _56
REMARK   24  A    between atoms: _56  and  _57
REMARK   25  A    between atoms: _56  and  _59
REMARK   26  A    between atoms: _59  and  _60
REMARK   27  A    between atoms: _63  and  _65
REMARK   28  A    between atoms: _65  and  _66
REMARK   29  A    between atoms: _68  and  _70
REMARK   30  A    between atoms: _70  and  _71
REMARK   31  A    between atoms: _74  and  _76
REMARK   32  A    between atoms: _76  and  _77
REMARK   33  A    between atoms: _76  and  _79
REMARK   34  A    between atoms: _79  and  _80
REMARK   35  A    between atoms: _83  and  _85
REMARK   36  A    between atoms: _85  and  _86
REMARK   37  A    between atoms: _85  and  _88
REMARK   38  A    between atoms: _88  and  _89
REMARK   39  A    between atoms: _92  and  _94
REMARK   40  A    between atoms: _94  and  _95
REMARK   41  A    between atoms: _94  and  _97
REMARK   42  A    between atoms: _97  and  _98
REMARK   43  A    between atoms: _101  and  _103
REMARK   44  A    between atoms: _103  and  _104
REMARK   45  A    between atoms: _103  and  _106
REMARK   46  A    between atoms: _109  and  _111
REMARK   47  A    between atoms: _111  and  _112
REMARK   48  A    between atoms: _111  and  _114
REMARK   49  A    between atoms: _114  and  _115
REMARK   50  A    between atoms: _115  and  _116
REMARK   51  A    between atoms: _116  and  _117
REMARK   52  A    between atoms: _117  and  _118
REMARK   53  A    between atoms: _122  and  _124
REMARK   54  A    between atoms: _124  and  _125
REMARK   55  A    between atoms: _124  and  _127
REMARK   56  A    between atoms: _127  and  _128
REMARK   57  A    between atoms: _128  and  _129
REMARK   58  A    between atoms: _131  and  _133
REMARK   59  A    between atoms: _133  and  _134
REMARK   60  A    between atoms: _133  and  _136
REMARK   61  A    between atoms: _136  and  _137
REMARK   62  A    between atoms: _140  and  _142
REMARK   63  A    between atoms: _142  and  _143
REMARK   64  A    between atoms: _145  and  _147
REMARK   65  A    between atoms: _147  and  _148
REMARK   66  A    between atoms: _150  and  _152
REMARK   67  A    between atoms: _152  and  _153
REMARK   68  A    between atoms: _152  and  _155
REMARK   69  A    between atoms: _155  and  _156
REMARK   70  A    between atoms: _159  and  _161
REMARK   71  A    between atoms: _161  and  _162
REMARK   72  A    between atoms: _164  and  _166
REMARK   73  A    between atoms: _166  and  _167
REMARK   74  A    between atoms: _169  and  _171
REMARK   75  A    between atoms: _171  and  _172
REMARK   76  A    between atoms: _171  and  _174
REMARK   77  A    between atoms: _174  and  _175
REMARK   78  A    between atoms: _181  and  _183
REMARK   79  A    between atoms: _183  and  _184
REMARK   80  A    between atoms: _183  and  _186
REMARK   81  A    between atoms: _186  and  _187
REMARK   82  A    between atoms: _190  and  _192
REMARK   83  A    between atoms: _192  and  _193
REMARK   84  A    between atoms: _192  and  _195
REMARK   85  A    between atoms: _198  and  _200
REMARK   86  A    between atoms: _200  and  _201
REMARK   87  A    between atoms: _200  and  _203
REMARK   88  A    between atoms: _203  and  _204
REMARK   89  A    between atoms: _207  and  _209
REMARK   90  A    between atoms: _209  and  _210
REMARK   91  A    between atoms: _209  and  _212
REMARK   92  A    between atoms: _212  and  _213
REMARK   93  A    between atoms: _217  and  _218
REMARK   94  A    between atoms: _223  and  _225
REMARK   95  A    between atoms: _225  and  _226
REMARK   96  A    between atoms: _225  and  _228
REMARK   97  A    between atoms: _231  and  _233
REMARK   98  A    between atoms: _233  and  _234
REMARK   99  A    between atoms: _233  and  _236
REMARK  100  A    between atoms: _236  and  _237
REMARK  101  A    between atoms: _242  and  _244
REMARK  102  A    between atoms: _244  and  _245
REMARK  103  A    between atoms: _244  and  _247
REMARK  104  A    between atoms: _247  and  _248
REMARK  105  A    between atoms: _251  and  _253
REMARK  106  A    between atoms: _253  and  _254
REMARK  107  A    between atoms: _253  and  _256
REMARK  108  A    between atoms: _256  and  _257
REMARK  109  A    between atoms: _260  and  _262
REMARK  110  A    between atoms: _262  and  _263
REMARK  111  A    between atoms: _265  and  _267
REMARK  112  A    between atoms: _267  and  _268
REMARK  113  A    between atoms: _267  and  _270
REMARK  114  A    between atoms: _270  and  _271
REMARK  115  A    between atoms: _271  and  _272
REMARK  116  A    between atoms: _272  and  _273
REMARK  117  A    between atoms: _282  and  _284
REMARK  118  A    between atoms: _284  and  _285
REMARK  119  A    between atoms: _284  and  _287
REMARK  120  A    between atoms: _287  and  _288
REMARK  121  A    between atoms: _293  and  _295
REMARK  122  A    between atoms: _295  and  _296
REMARK  123  A    between atoms: _295  and  _298
REMARK  124  A    between atoms: _298  and  _299
REMARK  125  A    between atoms: _299  and  _300
REMARK  126  A    between atoms: _300  and  _301
REMARK  127  A    between atoms: _310  and  _312
REMARK  128  A    between atoms: _312  and  _313
REMARK  129  A    between atoms: _312  and  _315
REMARK  130  A    between atoms: _315  and  _316
REMARK  131  A    between atoms: _319  and  _321
REMARK  132  A    between atoms: _321  and  _322
REMARK  133  A    between atoms: _321  and  _324
REMARK  134  A    between atoms: _324  and  _325
REMARK  135  A    between atoms: _328  and  _330
REMARK  136  A    between atoms: _330  and  _331
REMARK  137  A    between atoms: _330  and  _333
REMARK  138  A    between atoms: _333  and  _334
REMARK  139  A    between atoms: _337  and  _339
REMARK  140  A    between atoms: _339  and  _340
REMARK  141  A    between atoms: _339  and  _342
REMARK  142  A    between atoms: _342  and  _343
REMARK  143  A    between atoms: _346  and  _348
REMARK  144  A    between atoms: _348  and  _349
REMARK  145  A    between atoms: _348  and  _351
REMARK  146  A    between atoms: _351  and  _352
REMARK  147  A    between atoms: _355  and  _357
REMARK  148  A    between atoms: _357  and  _358
REMARK  149  A    between atoms: _360  and  _362
REMARK  150  A    between atoms: _362  and  _363
REMARK  151  A    between atoms: _366  and  _368
REMARK  152  A    between atoms: _368  and  _369
REMARK  153  A    between atoms: _368  and  _371
REMARK  154  A    between atoms: _371  and  _372
REMARK  155  A    between atoms: _375  and  _377
REMARK  156  A    between atoms: _377  and  _378
REMARK  157  A    between atoms: _377  and  _380
REMARK  158  A    between atoms: _380  and  _381
REMARK  159  A    between atoms: _384  and  _386
REMARK  160  A    between atoms: _386  and  _387
REMARK  161  A    between atoms: _386  and  _389
REMARK  162  A    between atoms: _389  and  _390
REMARK  163  A    between atoms: _393  and  _395
REMARK  164  A    between atoms: _395  and  _396
REMARK  165  A    between atoms: _395  and  _398
REMARK  166  A    between atoms: _401  and  _403
REMARK  167  A    between atoms: _403  and  _404
REMARK  168  A    between atoms: _403  and  _406
REMARK  169  A    between atoms: _406  and  _407
REMARK  170  A    between atoms: _410  and  _412
REMARK  171  A    between atoms: _412  and  _413
REMARK  172  A    between atoms: _412  and  _415
REMARK  173  A    between atoms: _415  and  _416
REMARK  174  A    between atoms: _416  and  _417
REMARK  175  A    between atoms: _417  and  _418
REMARK  176  A    between atoms: _418  and  _419
REMARK  177  A    between atoms: _423  and  _425
REMARK  178  A    between atoms: _425  and  _426
REMARK  179  A    between atoms: _425  and  _428
REMARK  180  A    between atoms: _428  and  _429
REMARK  181  A    between atoms: _429  and  _430
REMARK  182  A    between atoms: _432  and  _434
REMARK  183  A    between atoms: _434  and  _435
REMARK  184  A    between atoms: _434  and  _437
REMARK  185  A    between atoms: _437  and  _438
REMARK  186  A    between atoms: _441  and  _443
REMARK  187  A    between atoms: _443  and  _444
REMARK  188  A    between atoms: _446  and  _448
REMARK  189  A    between atoms: _448  and  _449
REMARK  190  A    between atoms: _451  and  _453
REMARK  191  A    between atoms: _453  and  _454
REMARK  192  A    between atoms: _453  and  _456
REMARK  193  A    between atoms: _456  and  _457
REMARK  194  A    between atoms: _460  and  _462
REMARK  195  A    between atoms: _462  and  _463
REMARK  196  A    between atoms: _465  and  _467
REMARK  197  A    between atoms: _467  and  _468
REMARK  198  A    between atoms: _470  and  _472
REMARK  199  A    between atoms: _472  and  _473
REMARK  200  A    between atoms: _472  and  _475
REMARK  201  A    between atoms: _475  and  _476
REMARK  202  A    between atoms: _482  and  _484
REMARK  203  A    between atoms: _484  and  _485
REMARK  204  A    between atoms: _484  and  _487
REMARK  205  A    between atoms: _487  and  _488
REMARK  206  A    between atoms: _491  and  _493
REMARK  207  A    between atoms: _493  and  _494
REMARK  208  A    between atoms: _493  and  _496
REMARK  209  A    between atoms: _499  and  _501
REMARK  210  A    between atoms: _501  and  _502
REMARK  211  A    between atoms: _501  and  _504
REMARK  212  A    between atoms: _504  and  _505
REMARK  213  A    between atoms: _508  and  _510
REMARK  214  A    between atoms: _510  and  _511
REMARK  215  A    between atoms: _510  and  _513
REMARK  216  A    between atoms: _513  and  _514
REMARK  217  A    between atoms: _518  and  _519
REMARK  218  A    between atoms: _524  and  _526
REMARK  219  A    between atoms: _526  and  _527
REMARK  220  A    between atoms: _526  and  _529
REMARK  221  A    between atoms: _532  and  _534
REMARK  222  A    between atoms: _534  and  _535
REMARK  223  A    between atoms: _534  and  _537
REMARK  224  A    between atoms: _537  and  _538
REMARK  225  A    between atoms: _543  and  _545
REMARK  226  A    between atoms: _545  and  _546
REMARK  227  A    between atoms: _545  and  _548
REMARK  228  A    between atoms: _548  and  _549
REMARK  229  A    between atoms: _552  and  _554
REMARK  230  A    between atoms: _554  and  _555
REMARK  231  A    between atoms: _554  and  _557
REMARK  232  A    between atoms: _557  and  _558
REMARK  233  A    between atoms: _561  and  _563
REMARK  234  A    between atoms: _563  and  _564
REMARK  235  A    between atoms: _566  and  _568
REMARK  236  A    between atoms: _568  and  _569
REMARK  237  A    between atoms: _568  and  _571
REMARK  238  A    between atoms: _571  and  _572
REMARK  239  A    between atoms: _572  and  _573
REMARK  240  A    between atoms: _573  and  _574
REMARK  241  A    between atoms: _583  and  _585
REMARK  242  A    between atoms: _585  and  _586
REMARK  243  A    between atoms: _585  and  _588
REMARK  244  A    between atoms: _588  and  _589
REMARK                            x       y       z     vdW  Elec       q    Type
REMARK                         _______ _______ _______ _____ _____    ______ ____
ROOT
ATOM      1  O   HOH     1       8.778  34.022  12.674  0.00  0.00    +0.000 OA
ENDROOT
TORSDOF 0
REMARK  Name = ../refined-set-2016/1d4j/1d4j_pocket.pdb
REMARK  244 active torsions:
REMARK  status: ('A' for Active; 'I' for Inactive)
REMARK    1  A    between atoms: _1  and  _3
REMARK    2  A    between atoms: _3  and  _4
REMARK    3  A    between atoms: _3  and  _6
REMARK    4  A    between atoms: _6  and  _7
REMARK    5  A    between atoms: _7  and  _8
REMARK    6  A    between atoms: _8  and  _9
REMARK    7  A    between atoms: _18  and  _20
REMARK    8  A    between atoms: _20  and  _21
REMARK    9  A    between atoms: _20  and  _23
REMARK   10  A    between atoms: _23  and  _24
REMARK   11  A    between atoms: _27  and  _29
REMARK   12  A    between atoms: _29  and  _30
REMARK   13  A    between atoms: _29  and  _32
REMARK   14  A    between atoms: _32  and  _33
REMARK   15  A    between atoms: _36  and  _38
REMARK   16  A    between atoms: _38  and  _39
REMARK   17  A    between atoms: _38  and  _41
REMARK   18  A    between atoms: _41  and  _42
REMARK   19  A    between atoms: _45  and  _47
REMARK   20  A    between atoms: _47  and  _48
REMARK   21  A    between atoms: _47  and  _50
REMARK   22  A    between atoms: _50  and  _51
REMARK   23  A    between atoms: _54  and  _56
REMARK   24  A    between atoms: _56  and  _57
REMARK   25  A    between atoms: _56  and  _59
REMARK   26  A    between atoms: _59  and  _60
REMARK   27  A    between atoms: _63  and  _65
REMARK   28  A    between atoms: _65  and  _66
REMARK   29  A    between atoms: _68  and  _70
REMARK   30  A    between atoms: _70  and  _71
REMARK   31  A    between atoms: _74  and  _76
REMARK   32  A    between atoms: _76  and  _77
REMARK   33  A    between atoms: _76  and  _79
REMARK   34  A    between atoms: _79  and  _80
REMARK   35  A    between atoms: _83  and  _85
REMARK   36  A    between atoms: _85  and  _86
REMARK   37  A    between atoms: _85  and  _88
REMARK   38  A    between atoms: _88  and  _89
REMARK   39  A    between atoms: _92  and  _94
REMARK   40  A    between atoms: _94  and  _95
REMARK   41  A    between atoms: _94  and  _97
REMARK   42  A    between atoms: _97  and  _98
REMARK   43  A    between atoms: _101  and  _103
REMARK   44  A    between atoms: _103  and  _104
REMARK   45  A    between atoms: _103  and  _106
REMARK   46  A    between atoms: _109  and  _111
REMARK   47  A    between atoms: _111  and  _112
REMARK   48  A    between atoms: _111  and  _114
REMARK   49  A    between atoms: _114  and  _115
REMARK   50  A    between atoms: _115  and  _116
REMARK   51  A    between atoms: _116  and  _117
REMARK   52  A    between atoms: _117  and  _118
REMARK   53  A    between atoms: _122  and  _124
REMARK   54  A    between atoms: _124  and  _125
REMARK   55  A    between atoms: _124  and  _127
REMARK   56  A    between atoms: _127  and  _128
REMARK   57  A    between atoms: _128  and  _129
REMARK   58  A    between atoms: _131  and  _133
REMARK   59  A    between atoms: _133  and  _134
REMARK   60  A    between atoms: _133  and  _136
REMARK   61  A    between atoms: _136  and  _137
REMARK   62  A    between atoms: _140  and  _142
REMARK   63  A    between atoms: _142  and  _143
REMARK   64  A    between atoms: _145  and  _147
REMARK   65  A    between atoms: _147  and  _148
REMARK   66  A    between atoms: _150  and  _152
REMARK   67  A    between atoms: _152  and  _153
REMARK   68  A    between atoms: _152  and  _155
REMARK   69  A    between atoms: _155  and  _156
REMARK   70  A    between atoms: _159  and  _161
REMARK   71  A    between atoms: _161  and  _162
REMARK   72  A    between atoms: _164  and  _166
REMARK   73  A    between atoms: _166  and  _167
REMARK   74  A    between atoms: _169  and  _171
REMARK   75  A    between atoms: _171  and  _172
REMARK   76  A    between atoms: _171  and  _174
REMARK   77  A    between atoms: _174  and  _175
REMARK   78  A    between atoms: _181  and  _183
REMARK   79  A    between atoms: _183  and  _184
REMARK   80  A    between atoms: _183  and  _186
REMARK   81  A    between atoms: _186  and  _187
REMARK   82  A    between atoms: _190  and  _192
REMARK   83  A    between atoms: _192  and  _193
REMARK   84  A    between atoms: _192  and  _195
REMARK   85  A    between atoms: _198  and  _200
REMARK   86  A    between atoms: _200  and  _201
REMARK   87  A    between atoms: _200  and  _203
REMARK   88  A    between atoms: _203  and  _204
REMARK   89  A    between atoms: _207  and  _209
REMARK   90  A    between atoms: _209  and  _210
REMARK   91  A    between atoms: _209  and  _212
REMARK   92  A    between atoms: _212  and  _213
REMARK   93  A    between atoms: _217  and  _218
REMARK   94  A    between atoms: _223  and  _225
REMARK   95  A    between atoms: _225  and  _226
REMARK   96  A    between atoms: _225  and  _228
REMARK   97  A    between atoms: _231  and  _233
REMARK   98  A    between atoms: _233  and  _234
REMARK   99  A    between atoms: _233  and  _236
REMARK  100  A    between atoms: _236  and  _237
REMARK  101  A    between atoms: _242  and  _244
REMARK  102  A    between atoms: _244  and  _245
REMARK  103  A    between atoms: _244  and  _247
REMARK  104  A    between atoms: _247  and  _248
REMARK  105  A    between atoms: _251  and  _253
REMARK  106  A    between atoms: _253  and  _254
REMARK  107  A    between atoms: _253  and  _256
REMARK  108  A    between atoms: _256  and  _257
REMARK  109  A    between atoms: _260  and  _262
REMARK  110  A    between atoms: _262  and  _263
REMARK  111  A    between atoms: _265  and  _267
REMARK  112  A    between atoms: _267  and  _268
REMARK  113  A    between atoms: _267  and  _270
REMARK  114  A    between atoms: _270  and  _271
REMARK  115  A    between atoms: _271  and  _272
REMARK  116  A    between atoms: _272  and  _273
REMARK  117  A    between atoms: _282  and  _284
REMARK  118  A    between atoms: _284  and  _285
REMARK  119  A    between atoms: _284  and  _287
REMARK  120  A    between atoms: _287  and  _288
REMARK  121  A    between atoms: _293  and  _295
REMARK  122  A    between atoms: _295  and  _296
REMARK  123  A    between atoms: _295  and  _298
REMARK  124  A    between atoms: _298  and  _299
REMARK  125  A    between atoms: _299  and  _300
REMARK  126  A    between atoms: _300  and  _301
REMARK  127  A    between atoms: _310  and  _312
REMARK  128  A    between atoms: _312  and  _313
REMARK  129  A    between atoms: _312  and  _315
REMARK  130  A    between atoms: _315  and  _316
REMARK  131  A    between atoms: _319  and  _321
REMARK  132  A    between atoms: _321  and  _322
REMARK  133  A    between atoms: _321  and  _324
REMARK  134  A    between atoms: _324  and  _325
REMARK  135  A    between atoms: _328  and  _330
REMARK  136  A    between atoms: _330  and  _331
REMARK  137  A    between atoms: _330  and  _333
REMARK  138  A    between atoms: _333  and  _334
REMARK  139  A    between atoms: _337  and  _339
REMARK  140  A    between atoms: _339  and  _340
REMARK  141  A    between atoms: _339  and  _342
REMARK  142  A    between atoms: _342  and  _343
REMARK  143  A    between atoms: _346  and  _348
REMARK  144  A    between atoms: _348  and  _349
REMARK  145  A    between atoms: _348  and  _351
REMARK  146  A    between atoms: _351  and  _352
REMARK  147  A    between atoms: _355  and  _357
REMARK  148  A    between atoms: _357  and  _358
REMARK  149  A    between atoms: _360  and  _362
REMARK  150  A    between atoms: _362  and  _363
REMARK  151  A    between atoms: _366  and  _368
REMARK  152  A    between atoms: _368  and  _369
REMARK  153  A    between atoms: _368  and  _371
REMARK  154  A    between atoms: _371  and  _372
REMARK  155  A    between atoms: _375  and  _377
REMARK  156  A    between atoms: _377  and  _378
REMARK  157  A    between atoms: _377  and  _380
REMARK  158  A    between atoms: _380  and  _381
REMARK  159  A    between atoms: _384  and  _386
REMARK  160  A    between atoms: _386  and  _387
REMARK  161  A    between atoms: _386  and  _389
REMARK  162  A    between atoms: _389  and  _390
REMARK  163  A    between atoms: _393  and  _395
REMARK  164  A    between atoms: _395  and  _396
REMARK  165  A    between atoms: _395  and  _398
REMARK  166  A    between atoms: _401  and  _403
REMARK  167  A    between atoms: _403  and  _404
REMARK  168  A    between atoms: _403  and  _406
REMARK  169  A    between atoms: _406  and  _407
REMARK  170  A    between atoms: _410  and  _412
REMARK  171  A    between atoms: _412  and  _413
REMARK  172  A    between atoms: _412  and  _415
REMARK  173  A    between atoms: _415  and  _416
REMARK  174  A    between atoms: _416  and  _417
REMARK  175  A    between atoms: _417  and  _418
REMARK  176  A    between atoms: _418  and  _419
REMARK  177  A    between atoms: _423  and  _425
REMARK  178  A    between atoms: _425  and  _426
REMARK  179  A    between atoms: _425  and  _428
REMARK  180  A    between atoms: _428  and  _429
REMARK  181  A    between atoms: _429  and  _430
REMARK  182  A    between atoms: _432  and  _434
REMARK  183  A    between atoms: _434  and  _435
REMARK  184  A    between atoms: _434  and  _437
REMARK  185  A    between atoms: _437  and  _438
REMARK  186  A    between atoms: _441  and  _443
REMARK  187  A    between atoms: _443  and  _444
REMARK  188  A    between atoms: _446  and  _448
REMARK  189  A    between atoms: _448  and  _449
REMARK  190  A    between atoms: _451  and  _453
REMARK  191  A    between atoms: _453  and  _454
REMARK  192  A    between atoms: _453  and  _456
REMARK  193  A    between atoms: _456  and  _457
REMARK  194  A    between atoms: _460  and  _462
REMARK  195  A    between atoms: _462  and  _463
REMARK  196  A    between atoms: _465  and  _467
REMARK  197  A    between atoms: _467  and  _468
REMARK  198  A    between atoms: _470  and  _472
REMARK  199  A    between atoms: _472  and  _473
REMARK  200  A    between atoms: _472  and  _475
REMARK  201  A    between atoms: _475  and  _476
REMARK  202  A    between atoms: _482  and  _484
REMARK  203  A    between atoms: _484  and  _485
REMARK  204  A    between atoms: _484  and  _487
REMARK  205  A    between atoms: _487  and  _488
REMARK  206  A    between atoms: _491  and  _493
REMARK  207  A    between atoms: _493  and  _494
REMARK  208  A    between atoms: _493  and  _496
REMARK  209  A    between atoms: _499  and  _501
REMARK  210  A    between atoms: _501  and  _502
REMARK  211  A    between atoms: _501  and  _504
REMARK  212  A    between atoms: _504  and  _505
REMARK  213  A    between atoms: _508  and  _510
REMARK  214  A    between atoms: _510  and  _511
REMARK  215  A    between atoms: _510  and  _513
REMARK  216  A    between atoms: _513  and  _514
REMARK  217  A    between atoms: _518  and  _519
REMARK  218  A    between atoms: _524  and  _526
REMARK  219  A    between atoms: _526  and  _527
REMARK  220  A    between atoms: _526  and  _529
REMARK  221  A    between atoms: _532  and  _534
REMARK  222  A    between atoms: _534  and  _535
REMARK  223  A    between atoms: _534  and  _537
REMARK  224  A    between atoms: _537  and  _538
REMARK  225  A    between atoms: _543  and  _545
REMARK  226  A    between atoms: _545  and  _546
REMARK  227  A    between atoms: _545  and  _548
REMARK  228  A    between atoms: _548  and  _549
REMARK  229  A    between atoms: _552  and  _554
REMARK  230  A    between atoms: _554  and  _555
REMARK  231  A    between atoms: _554  and  _557
REMARK  232  A    between atoms: _557  and  _558
REMARK  233  A    between atoms: _561  and  _563
REMARK  234  A    between atoms: _563  and  _564
REMARK  235  A    between atoms: _566  and  _568
REMARK  236  A    between atoms: _568  and  _569
REMARK  237  A    between atoms: _568  and  _571
REMARK  238  A    between atoms: _571  and  _572
REMARK  239  A    between atoms: _572  and  _573
REMARK  240  A    between atoms: _573  and  _574
REMARK  241  A    between atoms: _583  and  _585
REMARK  242  A    between atoms: _585  and  _586
REMARK  243  A    between atoms: _585  and  _588
REMARK  244  A    between atoms: _588  and  _589
REMARK                            x       y       z     vdW  Elec       q    Type
REMARK                         _______ _______ _______ _____ _____    ______ ____
ROOT
ATOM      1  O   HOH     1      23.484  22.278  11.782  0.00  0.00    +0.000 OA
ENDROOT
TORSDOF 0
REMARK  Name = ../refined-set-2016/1d4j/1d4j_pocket.pdb
REMARK  244 active torsions:
REMARK  status: ('A' for Active; 'I' for Inactive)
REMARK    1  A    between atoms: _1  and  _3
REMARK    2  A    between atoms: _3  and  _4
REMARK    3  A    between atoms: _3  and  _6
REMARK    4  A    between atoms: _6  and  _7
REMARK    5  A    between atoms: _7  and  _8
REMARK    6  A    between atoms: _8  and  _9
REMARK    7  A    between atoms: _18  and  _20
REMARK    8  A    between atoms: _20  and  _21
REMARK    9  A    between atoms: _20  and  _23
REMARK   10  A    between atoms: _23  and  _24
REMARK   11  A    between atoms: _27  and  _29
REMARK   12  A    between atoms: _29  and  _30
REMARK   13  A    between atoms: _29  and  _32
REMARK   14  A    between atoms: _32  and  _33
REMARK   15  A    between atoms: _36  and  _38
REMARK   16  A    between atoms: _38  and  _39
REMARK   17  A    between atoms: _38  and  _41
REMARK   18  A    between atoms: _41  and  _42
REMARK   19  A    between atoms: _45  and  _47
REMARK   20  A    between atoms: _47  and  _48
REMARK   21  A    between atoms: _47  and  _50
REMARK   22  A    between atoms: _50  and  _51
REMARK   23  A    between atoms: _54  and  _56
REMARK   24  A    between atoms: _56  and  _57
REMARK   25  A    between atoms: _56  and  _59
REMARK   26  A    between atoms: _59  and  _60
REMARK   27  A    between atoms: _63  and  _65
REMARK   28  A    between atoms: _65  and  _66
REMARK   29  A    between atoms: _68  and  _70
REMARK   30  A    between atoms: _70  and  _71
REMARK   31  A    between atoms: _74  and  _76
REMARK   32  A    between atoms: _76  and  _77
REMARK   33  A    between atoms: _76  and  _79
REMARK   34  A    between atoms: _79  and  _80
REMARK   35  A    between atoms: _83  and  _85
REMARK   36  A    between atoms: _85  and  _86
REMARK   37  A    between atoms: _85  and  _88
REMARK   38  A    between atoms: _88  and  _89
REMARK   39  A    between atoms: _92  and  _94
REMARK   40  A    between atoms: _94  and  _95
REMARK   41  A    between atoms: _94  and  _97
REMARK   42  A    between atoms: _97  and  _98
REMARK   43  A    between atoms: _101  and  _103
REMARK   44  A    between atoms: _103  and  _104
REMARK   45  A    between atoms: _103  and  _106
REMARK   46  A    between atoms: _109  and  _111
REMARK   47  A    between atoms: _111  and  _112
REMARK   48  A    between atoms: _111  and  _114
REMARK   49  A    between atoms: _114  and  _115
REMARK   50  A    between atoms: _115  and  _116
REMARK   51  A    between atoms: _116  and  _117
REMARK   52  A    between atoms: _117  and  _118
REMARK   53  A    between atoms: _122  and  _124
REMARK   54  A    between atoms: _124  and  _125
REMARK   55  A    between atoms: _124  and  _127
REMARK   56  A    between atoms: _127  and  _128
REMARK   57  A    between atoms: _128  and  _129
REMARK   58  A    between atoms: _131  and  _133
REMARK   59  A    between atoms: _133  and  _134
REMARK   60  A    between atoms: _133  and  _136
REMARK   61  A    between atoms: _136  and  _137
REMARK   62  A    between atoms: _140  and  _142
REMARK   63  A    between atoms: _142  and  _143
REMARK   64  A    between atoms: _145  and  _147
REMARK   65  A    between atoms: _147  and  _148
REMARK   66  A    between atoms: _150  and  _152
REMARK   67  A    between atoms: _152  and  _153
REMARK   68  A    between atoms: _152  and  _155
REMARK   69  A    between atoms: _155  and  _156
REMARK   70  A    between atoms: _159  and  _161
REMARK   71  A    between atoms: _161  and  _162
REMARK   72  A    between atoms: _164  and  _166
REMARK   73  A    between atoms: _166  and  _167
REMARK   74  A    between atoms: _169  and  _171
REMARK   75  A    between atoms: _171  and  _172
REMARK   76  A    between atoms: _171  and  _174
REMARK   77  A    between atoms: _174  and  _175
REMARK   78  A    between atoms: _181  and  _183
REMARK   79  A    between atoms: _183  and  _184
REMARK   80  A    between atoms: _183  and  _186
REMARK   81  A    between atoms: _186  and  _187
REMARK   82  A    between atoms: _190  and  _192
REMARK   83  A    between atoms: _192  and  _193
REMARK   84  A    between atoms: _192  and  _195
REMARK   85  A    between atoms: _198  and  _200
REMARK   86  A    between atoms: _200  and  _201
REMARK   87  A    between atoms: _200  and  _203
REMARK   88  A    between atoms: _203  and  _204
REMARK   89  A    between atoms: _207  and  _209
REMARK   90  A    between atoms: _209  and  _210
REMARK   91  A    between atoms: _209  and  _212
REMARK   92  A    between atoms: _212  and  _213
REMARK   93  A    between atoms: _217  and  _218
REMARK   94  A    between atoms: _223  and  _225
REMARK   95  A    between atoms: _225  and  _226
REMARK   96  A    between atoms: _225  and  _228
REMARK   97  A    between atoms: _231  and  _233
REMARK   98  A    between atoms: _233  and  _234
REMARK   99  A    between atoms: _233  and  _236
REMARK  100  A    between atoms: _236  and  _237
REMARK  101  A    between atoms: _242  and  _244
REMARK  102  A    between atoms: _244  and  _245
REMARK  103  A    between atoms: _244  and  _247
REMARK  104  A    between atoms: _247  and  _248
REMARK  105  A    between atoms: _251  and  _253
REMARK  106  A    between atoms: _253  and  _254
REMARK  107  A    between atoms: _253  and  _256
REMARK  108  A    between atoms: _256  and  _257
REMARK  109  A    between atoms: _260  and  _262
REMARK  110  A    between atoms: _262  and  _263
REMARK  111  A    between atoms: _265  and  _267
REMARK  112  A    between atoms: _267  and  _268
REMARK  113  A    between atoms: _267  and  _270
REMARK  114  A    between atoms: _270  and  _271
REMARK  115  A    between atoms: _271  and  _272
REMARK  116  A    between atoms: _272  and  _273
REMARK  117  A    between atoms: _282  and  _284
REMARK  118  A    between atoms: _284  and  _285
REMARK  119  A    between atoms: _284  and  _287
REMARK  120  A    between atoms: _287  and  _288
REMARK  121  A    between atoms: _293  and  _295
REMARK  122  A    between atoms: _295  and  _296
REMARK  123  A    between atoms: _295  and  _298
REMARK  124  A    between atoms: _298  and  _299
REMARK  125  A    between atoms: _299  and  _300
REMARK  126  A    between atoms: _300  and  _301
REMARK  127  A    between atoms: _310  and  _312
REMARK  128  A    between atoms: _312  and  _313
REMARK  129  A    between atoms: _312  and  _315
REMARK  130  A    between atoms: _315  and  _316
REMARK  131  A    between atoms: _319  and  _321
REMARK  132  A    between atoms: _321  and  _322
REMARK  133  A    between atoms: _321  and  _324
REMARK  134  A    between atoms: _324  and  _325
REMARK  135  A    between atoms: _328  and  _330
REMARK  136  A    between atoms: _330  and  _331
REMARK  137  A    between atoms: _330  and  _333
REMARK  138  A    between atoms: _333  and  _334
REMARK  139  A    between atoms: _337  and  _339
REMARK  140  A    between atoms: _339  and  _340
REMARK  141  A    between atoms: _339  and  _342
REMARK  142  A    between atoms: _342  and  _343
REMARK  143  A    between atoms: _346  and  _348
REMARK  144  A    between atoms: _348  and  _349
REMARK  145  A    between atoms: _348  and  _351
REMARK  146  A    between atoms: _351  and  _352
REMARK  147  A    between atoms: _355  and  _357
REMARK  148  A    between atoms: _357  and  _358
REMARK  149  A    between atoms: _360  and  _362
REMARK  150  A    between atoms: _362  and  _363
REMARK  151  A    between atoms: _366  and  _368
REMARK  152  A    between atoms: _368  and  _369
REMARK  153  A    between atoms: _368  and  _371
REMARK  154  A    between atoms: _371  and  _372
REMARK  155  A    between atoms: _375  and  _377
REMARK  156  A    between atoms: _377  and  _378
REMARK  157  A    between atoms: _377  and  _380
REMARK  158  A    between atoms: _380  and  _381
REMARK  159  A    between atoms: _384  and  _386
REMARK  160  A    between atoms: _386  and  _387
REMARK  161  A    between atoms: _386  and  _389
REMARK  162  A    between atoms: _389  and  _390
REMARK  163  A    between atoms: _393  and  _395
REMARK  164  A    between atoms: _395  and  _396
REMARK  165  A    between atoms: _395  and  _398
REMARK  166  A    between atoms: _401  and  _403
REMARK  167  A    between atoms: _403  and  _404
REMARK  168  A    between atoms: _403  and  _406
REMARK  169  A    between atoms: _406  and  _407
REMARK  170  A    between atoms: _410  and  _412
REMARK  171  A    between atoms: _412  and  _413
REMARK  172  A    between atoms: _412  and  _415
REMARK  173  A    between atoms: _415  and  _416
REMARK  174  A    between atoms: _416  and  _417
REMARK  175  A    between atoms: _417  and  _418
REMARK  176  A    between atoms: _418  and  _419
REMARK  177  A    between atoms: _423  and  _425
REMARK  178  A    between atoms: _425  and  _426
REMARK  179  A    between atoms: _425  and  _428
REMARK  180  A    between atoms: _428  and  _429
REMARK  181  A    between atoms: _429  and  _430
REMARK  182  A    between atoms: _432  and  _434
REMARK  183  A    between atoms: _434  and  _435
REMARK  184  A    between atoms: _434  and  _437
REMARK  185  A    between atoms: _437  and  _438
REMARK  186  A    between atoms: _441  and  _443
REMARK  187  A    between atoms: _443  and  _444
REMARK  188  A    between atoms: _446  and  _448
REMARK  189  A    between atoms: _448  and  _449
REMARK  190  A    between atoms: _451  and  _453
REMARK  191  A    between atoms: _453  and  _454
REMARK  192  A    between atoms: _453  and  _456
REMARK  193  A    between atoms: _456  and  _457
REMARK  194  A    between atoms: _460  and  _462
REMARK  195  A    between atoms: _462  and  _463
REMARK  196  A    between atoms: _465  and  _467
REMARK  197  A    between atoms: _467  and  _468
REMARK  198  A    between atoms: _470  and  _472
REMARK  199  A    between atoms: _472  and  _473
REMARK  200  A    between atoms: _472  and  _475
REMARK  201  A    between atoms: _475  and  _476
REMARK  202  A    between atoms: _482  and  _484
REMARK  203  A    between atoms: _484  and  _485
REMARK  204  A    between atoms: _484  and  _487
REMARK  205  A    between atoms: _487  and  _488
REMARK  206  A    between atoms: _491  and  _493
REMARK  207  A    between atoms: _493  and  _494
REMARK  208  A    between atoms: _493  and  _496
REMARK  209  A    between atoms: _499  and  _501
REMARK  210  A    between atoms: _501  and  _502
REMARK  211  A    between atoms: _501  and  _504
REMARK  212  A    between atoms: _504  and  _505
REMARK  213  A    between atoms: _508  and  _510
REMARK  214  A    between atoms: _510  and  _511
REMARK  215  A    between atoms: _510  and  _513
REMARK  216  A    between atoms: _513  and  _514
REMARK  217  A    between atoms: _518  and  _519
REMARK  218  A    between atoms: _524  and  _526
REMARK  219  A    between atoms: _526  and  _527
REMARK  220  A    between atoms: _526  and  _529
REMARK  221  A    between atoms: _532  and  _534
REMARK  222  A    between atoms: _534  and  _535
REMARK  223  A    between atoms: _534  and  _537
REMARK  224  A    between atoms: _537  and  _538
REMARK  225  A    between atoms: _543  and  _545
REMARK  226  A    between atoms: _545  and  _546
REMARK  227  A    between atoms: _545  and  _548
REMARK  228  A    between atoms: _548  and  _549
REMARK  229  A    between atoms: _552  and  _554
REMARK  230  A    between atoms: _554  and  _555
REMARK  231  A    between atoms: _554  and  _557
REMARK  232  A    between atoms: _557  and  _558
REMARK  233  A    between atoms: _561  and  _563
REMARK  234  A    between atoms: _563  and  _564
REMARK  235  A    between atoms: _566  and  _568
REMARK  236  A    between atoms: _568  and  _569
REMARK  237  A    between atoms: _568  and  _571
REMARK  238  A    between atoms: _571  and  _572
REMARK  239  A    between atoms: _572  and  _573
REMARK  240  A    between atoms: _573  and  _574
REMARK  241  A    between atoms: _583  and  _585
REMARK  242  A    between atoms: _585  and  _586
REMARK  243  A    between atoms: _585  and  _588
REMARK  244  A    between atoms: _588  and  _589
REMARK                            x       y       z     vdW  Elec       q    Type
REMARK                         _______ _______ _______ _____ _____    ______ ____
ROOT
ATOM      1  O   HOH     1      11.452  21.058   6.745  0.00  0.00    +0.000 OA
ENDROOT
TORSDOF 0
REMARK  Name = ../refined-set-2016/1d4j/1d4j_pocket.pdb
REMARK  244 active torsions:
REMARK  status: ('A' for Active; 'I' for Inactive)
REMARK    1  A    between atoms: _1  and  _3
REMARK    2  A    between atoms: _3  and  _4
REMARK    3  A    between atoms: _3  and  _6
REMARK    4  A    between atoms: _6  and  _7
REMARK    5  A    between atoms: _7  and  _8
REMARK    6  A    between atoms: _8  and  _9
REMARK    7  A    between atoms: _18  and  _20
REMARK    8  A    between atoms: _20  and  _21
REMARK    9  A    between atoms: _20  and  _23
REMARK   10  A    between atoms: _23  and  _24
REMARK   11  A    between atoms: _27  and  _29
REMARK   12  A    between atoms: _29  and  _30
REMARK   13  A    between atoms: _29  and  _32
REMARK   14  A    between atoms: _32  and  _33
REMARK   15  A    between atoms: _36  and  _38
REMARK   16  A    between atoms: _38  and  _39
REMARK   17  A    between atoms: _38  and  _41
REMARK   18  A    between atoms: _41  and  _42
REMARK   19  A    between atoms: _45  and  _47
REMARK   20  A    between atoms: _47  and  _48
REMARK   21  A    between atoms: _47  and  _50
REMARK   22  A    between atoms: _50  and  _51
REMARK   23  A    between atoms: _54  and  _56
REMARK   24  A    between atoms: _56  and  _57
REMARK   25  A    between atoms: _56  and  _59
REMARK   26  A    between atoms: _59  and  _60
REMARK   27  A    between atoms: _63  and  _65
REMARK   28  A    between atoms: _65  and  _66
REMARK   29  A    between atoms: _68  and  _70
REMARK   30  A    between atoms: _70  and  _71
REMARK   31  A    between atoms: _74  and  _76
REMARK   32  A    between atoms: _76  and  _77
REMARK   33  A    between atoms: _76  and  _79
REMARK   34  A    between atoms: _79  and  _80
REMARK   35  A    between atoms: _83  and  _85
REMARK   36  A    between atoms: _85  and  _86
REMARK   37  A    between atoms: _85  and  _88
REMARK   38  A    between atoms: _88  and  _89
REMARK   39  A    between atoms: _92  and  _94
REMARK   40  A    between atoms: _94  and  _95
REMARK   41  A    between atoms: _94  and  _97
REMARK   42  A    between atoms: _97  and  _98
REMARK   43  A    between atoms: _101  and  _103
REMARK   44  A    between atoms: _103  and  _104
REMARK   45  A    between atoms: _103  and  _106
REMARK   46  A    between atoms: _109  and  _111
REMARK   47  A    between atoms: _111  and  _112
REMARK   48  A    between atoms: _111  and  _114
REMARK   49  A    between atoms: _114  and  _115
REMARK   50  A    between atoms: _115  and  _116
REMARK   51  A    between atoms: _116  and  _117
REMARK   52  A    between atoms: _117  and  _118
REMARK   53  A    between atoms: _122  and  _124
REMARK   54  A    between atoms: _124  and  _125
REMARK   55  A    between atoms: _124  and  _127
REMARK   56  A    between atoms: _127  and  _128
REMARK   57  A    between atoms: _128  and  _129
REMARK   58  A    between atoms: _131  and  _133
REMARK   59  A    between atoms: _133  and  _134
REMARK   60  A    between atoms: _133  and  _136
REMARK   61  A    between atoms: _136  and  _137
REMARK   62  A    between atoms: _140  and  _142
REMARK   63  A    between atoms: _142  and  _143
REMARK   64  A    between atoms: _145  and  _147
REMARK   65  A    between atoms: _147  and  _148
REMARK   66  A    between atoms: _150  and  _152
REMARK   67  A    between atoms: _152  and  _153
REMARK   68  A    between atoms: _152  and  _155
REMARK   69  A    between atoms: _155  and  _156
REMARK   70  A    between atoms: _159  and  _161
REMARK   71  A    between atoms: _161  and  _162
REMARK   72  A    between atoms: _164  and  _166
REMARK   73  A    between atoms: _166  and  _167
REMARK   74  A    between atoms: _169  and  _171
REMARK   75  A    between atoms: _171  and  _172
REMARK   76  A    between atoms: _171  and  _174
REMARK   77  A    between atoms: _174  and  _175
REMARK   78  A    between atoms: _181  and  _183
REMARK   79  A    between atoms: _183  and  _184
REMARK   80  A    between atoms: _183  and  _186
REMARK   81  A    between atoms: _186  and  _187
REMARK   82  A    between atoms: _190  and  _192
REMARK   83  A    between atoms: _192  and  _193
REMARK   84  A    between atoms: _192  and  _195
REMARK   85  A    between atoms: _198  and  _200
REMARK   86  A    between atoms: _200  and  _201
REMARK   87  A    between atoms: _200  and  _203
REMARK   88  A    between atoms: _203  and  _204
REMARK   89  A    between atoms: _207  and  _209
REMARK   90  A    between atoms: _209  and  _210
REMARK   91  A    between atoms: _209  and  _212
REMARK   92  A    between atoms: _212  and  _213
REMARK   93  A    between atoms: _217  and  _218
REMARK   94  A    between atoms: _223  and  _225
REMARK   95  A    between atoms: _225  and  _226
REMARK   96  A    between atoms: _225  and  _228
REMARK   97  A    between atoms: _231  and  _233
REMARK   98  A    between atoms: _233  and  _234
REMARK   99  A    between atoms: _233  and  _236
REMARK  100  A    between atoms: _236  and  _237
REMARK  101  A    between atoms: _242  and  _244
REMARK  102  A    between atoms: _244  and  _245
REMARK  103  A    between atoms: _244  and  _247
REMARK  104  A    between atoms: _247  and  _248
REMARK  105  A    between atoms: _251  and  _253
REMARK  106  A    between atoms: _253  and  _254
REMARK  107  A    between atoms: _253  and  _256
REMARK  108  A    between atoms: _256  and  _257
REMARK  109  A    between atoms: _260  and  _262
REMARK  110  A    between atoms: _262  and  _263
REMARK  111  A    between atoms: _265  and  _267
REMARK  112  A    between atoms: _267  and  _268
REMARK  113  A    between atoms: _267  and  _270
REMARK  114  A    between atoms: _270  and  _271
REMARK  115  A    between atoms: _271  and  _272
REMARK  116  A    between atoms: _272  and  _273
REMARK  117  A    between atoms: _282  and  _284
REMARK  118  A    between atoms: _284  and  _285
REMARK  119  A    between atoms: _284  and  _287
REMARK  120  A    between atoms: _287  and  _288
REMARK  121  A    between atoms: _293  and  _295
REMARK  122  A    between atoms: _295  and  _296
REMARK  123  A    between atoms: _295  and  _298
REMARK  124  A    between atoms: _298  and  _299
REMARK  125  A    between atoms: _299  and  _300
REMARK  126  A    between atoms: _300  and  _301
REMARK  127  A    between atoms: _310  and  _312
REMARK  128  A    between atoms: _312  and  _313
REMARK  129  A    between atoms: _312  and  _315
REMARK  130  A    between atoms: _315  and  _316
REMARK  131  A    between atoms: _319  and  _321
REMARK  132  A    between atoms: _321  and  _322
REMARK  133  A    between atoms: _321  and  _324
REMARK  134  A    between atoms: _324  and  _325
REMARK  135  A    between atoms: _328  and  _330
REMARK  136  A    between atoms: _330  and  _331
REMARK  137  A    between atoms: _330  and  _333
REMARK  138  A    between atoms: _333  and  _334
REMARK  139  A    between atoms: _337  and  _339
REMARK  140  A    between atoms: _339  and  _340
REMARK  141  A    between atoms: _339  and  _342
REMARK  142  A    between atoms: _342  and  _343
REMARK  143  A    between atoms: _346  and  _348
REMARK  144  A    between atoms: _348  and  _349
REMARK  145  A    between atoms: _348  and  _351
REMARK  146  A    between atoms: _351  and  _352
REMARK  147  A    between atoms: _355  and  _357
REMARK  148  A    between atoms: _357  and  _358
REMARK  149  A    between atoms: _360  and  _362
REMARK  150  A    between atoms: _362  and  _363
REMARK  151  A    between atoms: _366  and  _368
REMARK  152  A    between atoms: _368  and  _369
REMARK  153  A    between atoms: _368  and  _371
REMARK  154  A    between atoms: _371  and  _372
REMARK  155  A    between atoms: _375  and  _377
REMARK  156  A    between atoms: _377  and  _378
REMARK  157  A    between atoms: _377  and  _380
REMARK  158  A    between atoms: _380  and  _381
REMARK  159  A    between atoms: _384  and  _386
REMARK  160  A    between atoms: _386  and  _387
REMARK  161  A    between atoms: _386  and  _389
REMARK  162  A    between atoms: _389  and  _390
REMARK  163  A    between atoms: _393  and  _395
REMARK  164  A    between atoms: _395  and  _396
REMARK  165  A    between atoms: _395  and  _398
REMARK  166  A    between atoms: _401  and  _403
REMARK  167  A    between atoms: _403  and  _404
REMARK  168  A    between atoms: _403  and  _406
REMARK  169  A    between atoms: _406  and  _407
REMARK  170  A    between atoms: _410  and  _412
REMARK  171  A    between atoms: _412  and  _413
REMARK  172  A    between atoms: _412  and  _415
REMARK  173  A    between atoms: _415  and  _416
REMARK  174  A    between atoms: _416  and  _417
REMARK  175  A    between atoms: _417  and  _418
REMARK  176  A    between atoms: _418  and  _419
REMARK  177  A    between atoms: _423  and  _425
REMARK  178  A    between atoms: _425  and  _426
REMARK  179  A    between atoms: _425  and  _428
REMARK  180  A    between atoms: _428  and  _429
REMARK  181  A    between atoms: _429  and  _430
REMARK  182  A    between atoms: _432  and  _434
REMARK  183  A    between atoms: _434  and  _435
REMARK  184  A    between atoms: _434  and  _437
REMARK  185  A    between atoms: _437  and  _438
REMARK  186  A    between atoms: _441  and  _443
REMARK  187  A    between atoms: _443  and  _444
REMARK  188  A    between atoms: _446  and  _448
REMARK  189  A    between atoms: _448  and  _449
REMARK  190  A    between atoms: _451  and  _453
REMARK  191  A    between atoms: _453  and  _454
REMARK  192  A    between atoms: _453  and  _456
REMARK  193  A    between atoms: _456  and  _457
REMARK  194  A    between atoms: _460  and  _462
REMARK  195  A    between atoms: _462  and  _463
REMARK  196  A    between atoms: _465  and  _467
REMARK  197  A    between atoms: _467  and  _468
REMARK  198  A    between atoms: _470  and  _472
REMARK  199  A    between atoms: _472  and  _473
REMARK  200  A    between atoms: _472  and  _475
REMARK  201  A    between atoms: _475  and  _476
REMARK  202  A    between atoms: _482  and  _484
REMARK  203  A    between atoms: _484  and  _485
REMARK  204  A    between atoms: _484  and  _487
REMARK  205  A    between atoms: _487  and  _488
REMARK  206  A    between atoms: _491  and  _493
REMARK  207  A    between atoms: _493  and  _494
REMARK  208  A    between atoms: _493  and  _496
REMARK  209  A    between atoms: _499  and  _501
REMARK  210  A    between atoms: _501  and  _502
REMARK  211  A    between atoms: _501  and  _504
REMARK  212  A    between atoms: _504  and  _505
REMARK  213  A    between atoms: _508  and  _510
REMARK  214  A    between atoms: _510  and  _511
REMARK  215  A    between atoms: _510  and  _513
REMARK  216  A    between atoms: _513  and  _514
REMARK  217  A    between atoms: _518  and  _519
REMARK  218  A    between atoms: _524  and  _526
REMARK  219  A    between atoms: _526  and  _527
REMARK  220  A    between atoms: _526  and  _529
REMARK  221  A    between atoms: _532  and  _534
REMARK  222  A    between atoms: _534  and  _535
REMARK  223  A    between atoms: _534  and  _537
REMARK  224  A    between atoms: _537  and  _538
REMARK  225  A    between atoms: _543  and  _545
REMARK  226  A    between atoms: _545  and  _546
REMARK  227  A    between atoms: _545  and  _548
REMARK  228  A    between atoms: _548  and  _549
REMARK  229  A    between atoms: _552  and  _554
REMARK  230  A    between atoms: _554  and  _555
REMARK  231  A    between atoms: _554  and  _557
REMARK  232  A    between atoms: _557  and  _558
REMARK  233  A    between atoms: _561  and  _563
REMARK  234  A    between atoms: _563  and  _564
REMARK  235  A    between atoms: _566  and  _568
REMARK  236  A    between atoms: _568  and  _569
REMARK  237  A    between atoms: _568  and  _571
REMARK  238  A    between atoms: _571  and  _572
REMARK  239  A    between atoms: _572  and  _573
REMARK  240  A    between atoms: _573  and  _574
REMARK  241  A    between atoms: _583  and  _585
REMARK  242  A    between atoms: _585  and  _586
REMARK  243  A    between atoms: _585  and  _588
REMARK  244  A    between atoms: _588  and  _589
REMARK                            x       y       z     vdW  Elec       q    Type
REMARK                         _______ _______ _______ _____ _____    ______ ____
ROOT
ATOM      1  O   HOH     1      21.857  23.806   4.815  0.00  0.00    +0.000 OA
ENDROOT
TORSDOF 0
REMARK  Name = ../refined-set-2016/1d4j/1d4j_pocket.pdb
REMARK  244 active torsions:
REMARK  status: ('A' for Active; 'I' for Inactive)
REMARK    1  A    between atoms: _1  and  _3
REMARK    2  A    between atoms: _3  and  _4
REMARK    3  A    between atoms: _3  and  _6
REMARK    4  A    between atoms: _6  and  _7
REMARK    5  A    between atoms: _7  and  _8
REMARK    6  A    between atoms: _8  and  _9
REMARK    7  A    between atoms: _18  and  _20
REMARK    8  A    between atoms: _20  and  _21
REMARK    9  A    between atoms: _20  and  _23
REMARK   10  A    between atoms: _23  and  _24
REMARK   11  A    between atoms: _27  and  _29
REMARK   12  A    between atoms: _29  and  _30
REMARK   13  A    between atoms: _29  and  _32
REMARK   14  A    between atoms: _32  and  _33
REMARK   15  A    between atoms: _36  and  _38
REMARK   16  A    between atoms: _38  and  _39
REMARK   17  A    between atoms: _38  and  _41
REMARK   18  A    between atoms: _41  and  _42
REMARK   19  A    between atoms: _45  and  _47
REMARK   20  A    between atoms: _47  and  _48
REMARK   21  A    between atoms: _47  and  _50
REMARK   22  A    between atoms: _50  and  _51
REMARK   23  A    between atoms: _54  and  _56
REMARK   24  A    between atoms: _56  and  _57
REMARK   25  A    between atoms: _56  and  _59
REMARK   26  A    between atoms: _59  and  _60
REMARK   27  A    between atoms: _63  and  _65
REMARK   28  A    between atoms: _65  and  _66
REMARK   29  A    between atoms: _68  and  _70
REMARK   30  A    between atoms: _70  and  _71
REMARK   31  A    between atoms: _74  and  _76
REMARK   32  A    between atoms: _76  and  _77
REMARK   33  A    between atoms: _76  and  _79
REMARK   34  A    between atoms: _79  and  _80
REMARK   35  A    between atoms: _83  and  _85
REMARK   36  A    between atoms: _85  and  _86
REMARK   37  A    between atoms: _85  and  _88
REMARK   38  A    between atoms: _88  and  _89
REMARK   39  A    between atoms: _92  and  _94
REMARK   40  A    between atoms: _94  and  _95
REMARK   41  A    between atoms: _94  and  _97
REMARK   42  A    between atoms: _97  and  _98
REMARK   43  A    between atoms: _101  and  _103
REMARK   44  A    between atoms: _103  and  _104
REMARK   45  A    between atoms: _103  and  _106
REMARK   46  A    between atoms: _109  and  _111
REMARK   47  A    between atoms: _111  and  _112
REMARK   48  A    between atoms: _111  and  _114
REMARK   49  A    between atoms: _114  and  _115
REMARK   50  A    between atoms: _115  and  _116
REMARK   51  A    between atoms: _116  and  _117
REMARK   52  A    between atoms: _117  and  _118
REMARK   53  A    between atoms: _122  and  _124
REMARK   54  A    between atoms: _124  and  _125
REMARK   55  A    between atoms: _124  and  _127
REMARK   56  A    between atoms: _127  and  _128
REMARK   57  A    between atoms: _128  and  _129
REMARK   58  A    between atoms: _131  and  _133
REMARK   59  A    between atoms: _133  and  _134
REMARK   60  A    between atoms: _133  and  _136
REMARK   61  A    between atoms: _136  and  _137
REMARK   62  A    between atoms: _140  and  _142
REMARK   63  A    between atoms: _142  and  _143
REMARK   64  A    between atoms: _145  and  _147
REMARK   65  A    between atoms: _147  and  _148
REMARK   66  A    between atoms: _150  and  _152
REMARK   67  A    between atoms: _152  and  _153
REMARK   68  A    between atoms: _152  and  _155
REMARK   69  A    between atoms: _155  and  _156
REMARK   70  A    between atoms: _159  and  _161
REMARK   71  A    between atoms: _161  and  _162
REMARK   72  A    between atoms: _164  and  _166
REMARK   73  A    between atoms: _166  and  _167
REMARK   74  A    between atoms: _169  and  _171
REMARK   75  A    between atoms: _171  and  _172
REMARK   76  A    between atoms: _171  and  _174
REMARK   77  A    between atoms: _174  and  _175
REMARK   78  A    between atoms: _181  and  _183
REMARK   79  A    between atoms: _183  and  _184
REMARK   80  A    between atoms: _183  and  _186
REMARK   81  A    between atoms: _186  and  _187
REMARK   82  A    between atoms: _190  and  _192
REMARK   83  A    between atoms: _192  and  _193
REMARK   84  A    between atoms: _192  and  _195
REMARK   85  A    between atoms: _198  and  _200
REMARK   86  A    between atoms: _200  and  _201
REMARK   87  A    between atoms: _200  and  _203
REMARK   88  A    between atoms: _203  and  _204
REMARK   89  A    between atoms: _207  and  _209
REMARK   90  A    between atoms: _209  and  _210
REMARK   91  A    between atoms: _209  and  _212
REMARK   92  A    between atoms: _212  and  _213
REMARK   93  A    between atoms: _217  and  _218
REMARK   94  A    between atoms: _223  and  _225
REMARK   95  A    between atoms: _225  and  _226
REMARK   96  A    between atoms: _225  and  _228
REMARK   97  A    between atoms: _231  and  _233
REMARK   98  A    between atoms: _233  and  _234
REMARK   99  A    between atoms: _233  and  _236
REMARK  100  A    between atoms: _236  and  _237
REMARK  101  A    between atoms: _242  and  _244
REMARK  102  A    between atoms: _244  and  _245
REMARK  103  A    between atoms: _244  and  _247
REMARK  104  A    between atoms: _247  and  _248
REMARK  105  A    between atoms: _251  and  _253
REMARK  106  A    between atoms: _253  and  _254
REMARK  107  A    between atoms: _253  and  _256
REMARK  108  A    between atoms: _256  and  _257
REMARK  109  A    between atoms: _260  and  _262
REMARK  110  A    between atoms: _262  and  _263
REMARK  111  A    between atoms: _265  and  _267
REMARK  112  A    between atoms: _267  and  _268
REMARK  113  A    between atoms: _267  and  _270
REMARK  114  A    between atoms: _270  and  _271
REMARK  115  A    between atoms: _271  and  _272
REMARK  116  A    between atoms: _272  and  _273
REMARK  117  A    between atoms: _282  and  _284
REMARK  118  A    between atoms: _284  and  _285
REMARK  119  A    between atoms: _284  and  _287
REMARK  120  A    between atoms: _287  and  _288
REMARK  121  A    between atoms: _293  and  _295
REMARK  122  A    between atoms: _295  and  _296
REMARK  123  A    between atoms: _295  and  _298
REMARK  124  A    between atoms: _298  and  _299
REMARK  125  A    between atoms: _299  and  _300
REMARK  126  A    between atoms: _300  and  _301
REMARK  127  A    between atoms: _310  and  _312
REMARK  128  A    between atoms: _312  and  _313
REMARK  129  A    between atoms: _312  and  _315
REMARK  130  A    between atoms: _315  and  _316
REMARK  131  A    between atoms: _319  and  _321
REMARK  132  A    between atoms: _321  and  _322
REMARK  133  A    between atoms: _321  and  _324
REMARK  134  A    between atoms: _324  and  _325
REMARK  135  A    between atoms: _328  and  _330
REMARK  136  A    between atoms: _330  and  _331
REMARK  137  A    between atoms: _330  and  _333
REMARK  138  A    between atoms: _333  and  _334
REMARK  139  A    between atoms: _337  and  _339
REMARK  140  A    between atoms: _339  and  _340
REMARK  141  A    between atoms: _339  and  _342
REMARK  142  A    between atoms: _342  and  _343
REMARK  143  A    between atoms: _346  and  _348
REMARK  144  A    between atoms: _348  and  _349
REMARK  145  A    between atoms: _348  and  _351
REMARK  146  A    between atoms: _351  and  _352
REMARK  147  A    between atoms: _355  and  _357
REMARK  148  A    between atoms: _357  and  _358
REMARK  149  A    between atoms: _360  and  _362
REMARK  150  A    between atoms: _362  and  _363
REMARK  151  A    between atoms: _366  and  _368
REMARK  152  A    between atoms: _368  and  _369
REMARK  153  A    between atoms: _368  and  _371
REMARK  154  A    between atoms: _371  and  _372
REMARK  155  A    between atoms: _375  and  _377
REMARK  156  A    between atoms: _377  and  _378
REMARK  157  A    between atoms: _377  and  _380
REMARK  158  A    between atoms: _380  and  _381
REMARK  159  A    between atoms: _384  and  _386
REMARK  160  A    between atoms: _386  and  _387
REMARK  161  A    between atoms: _386  and  _389
REMARK  162  A    between atoms: _389  and  _390
REMARK  163  A    between atoms: _393  and  _395
REMARK  164  A    between atoms: _395  and  _396
REMARK  165  A    between atoms: _395  and  _398
REMARK  166  A    between atoms: _401  and  _403
REMARK  167  A    between atoms: _403  and  _404
REMARK  168  A    between atoms: _403  and  _406
REMARK  169  A    between atoms: _406  and  _407
REMARK  170  A    between atoms: _410  and  _412
REMARK  171  A    between atoms: _412  and  _413
REMARK  172  A    between atoms: _412  and  _415
REMARK  173  A    between atoms: _415  and  _416
REMARK  174  A    between atoms: _416  and  _417
REMARK  175  A    between atoms: _417  and  _418
REMARK  176  A    between atoms: _418  and  _419
REMARK  177  A    between atoms: _423  and  _425
REMARK  178  A    between atoms: _425  and  _426
REMARK  179  A    between atoms: _425  and  _428
REMARK  180  A    between atoms: _428  and  _429
REMARK  181  A    between atoms: _429  and  _430
REMARK  182  A    between atoms: _432  and  _434
REMARK  183  A    between atoms: _434  and  _435
REMARK  184  A    between atoms: _434  and  _437
REMARK  185  A    between atoms: _437  and  _438
REMARK  186  A    between atoms: _441  and  _443
REMARK  187  A    between atoms: _443  and  _444
REMARK  188  A    between atoms: _446  and  _448
REMARK  189  A    between atoms: _448  and  _449
REMARK  190  A    between atoms: _451  and  _453
REMARK  191  A    between atoms: _453  and  _454
REMARK  192  A    between atoms: _453  and  _456
REMARK  193  A    between atoms: _456  and  _457
REMARK  194  A    between atoms: _460  and  _462
REMARK  195  A    between atoms: _462  and  _463
REMARK  196  A    between atoms: _465  and  _467
REMARK  197  A    between atoms: _467  and  _468
REMARK  198  A    between atoms: _470  and  _472
REMARK  199  A    between atoms: _472  and  _473
REMARK  200  A    between atoms: _472  and  _475
REMARK  201  A    between atoms: _475  and  _476
REMARK  202  A    between atoms: _482  and  _484
REMARK  203  A    between atoms: _484  and  _485
REMARK  204  A    between atoms: _484  and  _487
REMARK  205  A    between atoms: _487  and  _488
REMARK  206  A    between atoms: _491  and  _493
REMARK  207  A    between atoms: _493  and  _494
REMARK  208  A    between atoms: _493  and  _496
REMARK  209  A    between atoms: _499  and  _501
REMARK  210  A    between atoms: _501  and  _502
REMARK  211  A    between atoms: _501  and  _504
REMARK  212  A    between atoms: _504  and  _505
REMARK  213  A    between atoms: _508  and  _510
REMARK  214  A    between atoms: _510  and  _511
REMARK  215  A    between atoms: _510  and  _513
REMARK  216  A    between atoms: _513  and  _514
REMARK  217  A    between atoms: _518  and  _519
REMARK  218  A    between atoms: _524  and  _526
REMARK  219  A    between atoms: _526  and  _527
REMARK  220  A    between atoms: _526  and  _529
REMARK  221  A    between atoms: _532  and  _534
REMARK  222  A    between atoms: _534  and  _535
REMARK  223  A    between atoms: _534  and  _537
REMARK  224  A    between atoms: _537  and  _538
REMARK  225  A    between atoms: _543  and  _545
REMARK  226  A    between atoms: _545  and  _546
REMARK  227  A    between atoms: _545  and  _548
REMARK  228  A    between atoms: _548  and  _549
REMARK  229  A    between atoms: _552  and  _554
REMARK  230  A    between atoms: _554  and  _555
REMARK  231  A    between atoms: _554  and  _557
REMARK  232  A    between atoms: _557  and  _558
REMARK  233  A    between atoms: _561  and  _563
REMARK  234  A    between atoms: _563  and  _564
REMARK  235  A    between atoms: _566  and  _568
REMARK  236  A    between atoms: _568  and  _569
REMARK  237  A    between atoms: _568  and  _571
REMARK  238  A    between atoms: _571  and  _572
REMARK  239  A    between atoms: _572  and  _573
REMARK  240  A    between atoms: _573  and  _574
REMARK  241  A    between atoms: _583  and  _585
REMARK  242  A    between atoms: _585  and  _586
REMARK  243  A    between atoms: _585  and  _588
REMARK  244  A    between atoms: _588  and  _589
REMARK                            x       y       z     vdW  Elec       q    Type
REMARK                         _______ _______ _______ _____ _____    ______ ____
ROOT
ATOM      1  O   HOH     1      20.401  16.258  -3.709  0.00  0.00    +0.000 OA
ENDROOT
TORSDOF 0
REMARK  Name = ../refined-set-2016/1d4j/1d4j_pocket.pdb
REMARK  244 active torsions:
REMARK  status: ('A' for Active; 'I' for Inactive)
REMARK    1  A    between atoms: _1  and  _3
REMARK    2  A    between atoms: _3  and  _4
REMARK    3  A    between atoms: _3  and  _6
REMARK    4  A    between atoms: _6  and  _7
REMARK    5  A    between atoms: _7  and  _8
REMARK    6  A    between atoms: _8  and  _9
REMARK    7  A    between atoms: _18  and  _20
REMARK    8  A    between atoms: _20  and  _21
REMARK    9  A    between atoms: _20  and  _23
REMARK   10  A    between atoms: _23  and  _24
REMARK   11  A    between atoms: _27  and  _29
REMARK   12  A    between atoms: _29  and  _30
REMARK   13  A    between atoms: _29  and  _32
REMARK   14  A    between atoms: _32  and  _33
REMARK   15  A    between atoms: _36  and  _38
REMARK   16  A    between atoms: _38  and  _39
REMARK   17  A    between atoms: _38  and  _41
REMARK   18  A    between atoms: _41  and  _42
REMARK   19  A    between atoms: _45  and  _47
REMARK   20  A    between atoms: _47  and  _48
REMARK   21  A    between atoms: _47  and  _50
REMARK   22  A    between atoms: _50  and  _51
REMARK   23  A    between atoms: _54  and  _56
REMARK   24  A    between atoms: _56  and  _57
REMARK   25  A    between atoms: _56  and  _59
REMARK   26  A    between atoms: _59  and  _60
REMARK   27  A    between atoms: _63  and  _65
REMARK   28  A    between atoms: _65  and  _66
REMARK   29  A    between atoms: _68  and  _70
REMARK   30  A    between atoms: _70  and  _71
REMARK   31  A    between atoms: _74  and  _76
REMARK   32  A    between atoms: _76  and  _77
REMARK   33  A    between atoms: _76  and  _79
REMARK   34  A    between atoms: _79  and  _80
REMARK   35  A    between atoms: _83  and  _85
REMARK   36  A    between atoms: _85  and  _86
REMARK   37  A    between atoms: _85  and  _88
REMARK   38  A    between atoms: _88  and  _89
REMARK   39  A    between atoms: _92  and  _94
REMARK   40  A    between atoms: _94  and  _95
REMARK   41  A    between atoms: _94  and  _97
REMARK   42  A    between atoms: _97  and  _98
REMARK   43  A    between atoms: _101  and  _103
REMARK   44  A    between atoms: _103  and  _104
REMARK   45  A    between atoms: _103  and  _106
REMARK   46  A    between atoms: _109  and  _111
REMARK   47  A    between atoms: _111  and  _112
REMARK   48  A    between atoms: _111  and  _114
REMARK   49  A    between atoms: _114  and  _115
REMARK   50  A    between atoms: _115  and  _116
REMARK   51  A    between atoms: _116  and  _117
REMARK   52  A    between atoms: _117  and  _118
REMARK   53  A    between atoms: _122  and  _124
REMARK   54  A    between atoms: _124  and  _125
REMARK   55  A    between atoms: _124  and  _127
REMARK   56  A    between atoms: _127  and  _128
REMARK   57  A    between atoms: _128  and  _129
REMARK   58  A    between atoms: _131  and  _133
REMARK   59  A    between atoms: _133  and  _134
REMARK   60  A    between atoms: _133  and  _136
REMARK   61  A    between atoms: _136  and  _137
REMARK   62  A    between atoms: _140  and  _142
REMARK   63  A    between atoms: _142  and  _143
REMARK   64  A    between atoms: _145  and  _147
REMARK   65  A    between atoms: _147  and  _148
REMARK   66  A    between atoms: _150  and  _152
REMARK   67  A    between atoms: _152  and  _153
REMARK   68  A    between atoms: _152  and  _155
REMARK   69  A    between atoms: _155  and  _156
REMARK   70  A    between atoms: _159  and  _161
REMARK   71  A    between atoms: _161  and  _162
REMARK   72  A    between atoms: _164  and  _166
REMARK   73  A    between atoms: _166  and  _167
REMARK   74  A    between atoms: _169  and  _171
REMARK   75  A    between atoms: _171  and  _172
REMARK   76  A    between atoms: _171  and  _174
REMARK   77  A    between atoms: _174  and  _175
REMARK   78  A    between atoms: _181  and  _183
REMARK   79  A    between atoms: _183  and  _184
REMARK   80  A    between atoms: _183  and  _186
REMARK   81  A    between atoms: _186  and  _187
REMARK   82  A    between atoms: _190  and  _192
REMARK   83  A    between atoms: _192  and  _193
REMARK   84  A    between atoms: _192  and  _195
REMARK   85  A    between atoms: _198  and  _200
REMARK   86  A    between atoms: _200  and  _201
REMARK   87  A    between atoms: _200  and  _203
REMARK   88  A    between atoms: _203  and  _204
REMARK   89  A    between atoms: _207  and  _209
REMARK   90  A    between atoms: _209  and  _210
REMARK   91  A    between atoms: _209  and  _212
REMARK   92  A    between atoms: _212  and  _213
REMARK   93  A    between atoms: _217  and  _218
REMARK   94  A    between atoms: _223  and  _225
REMARK   95  A    between atoms: _225  and  _226
REMARK   96  A    between atoms: _225  and  _228
REMARK   97  A    between atoms: _231  and  _233
REMARK   98  A    between atoms: _233  and  _234
REMARK   99  A    between atoms: _233  and  _236
REMARK  100  A    between atoms: _236  and  _237
REMARK  101  A    between atoms: _242  and  _244
REMARK  102  A    between atoms: _244  and  _245
REMARK  103  A    between atoms: _244  and  _247
REMARK  104  A    between atoms: _247  and  _248
REMARK  105  A    between atoms: _251  and  _253
REMARK  106  A    between atoms: _253  and  _254
REMARK  107  A    between atoms: _253  and  _256
REMARK  108  A    between atoms: _256  and  _257
REMARK  109  A    between atoms: _260  and  _262
REMARK  110  A    between atoms: _262  and  _263
REMARK  111  A    between atoms: _265  and  _267
REMARK  112  A    between atoms: _267  and  _268
REMARK  113  A    between atoms: _267  and  _270
REMARK  114  A    between atoms: _270  and  _271
REMARK  115  A    between atoms: _271  and  _272
REMARK  116  A    between atoms: _272  and  _273
REMARK  117  A    between atoms: _282  and  _284
REMARK  118  A    between atoms: _284  and  _285
REMARK  119  A    between atoms: _284  and  _287
REMARK  120  A    between atoms: _287  and  _288
REMARK  121  A    between atoms: _293  and  _295
REMARK  122  A    between atoms: _295  and  _296
REMARK  123  A    between atoms: _295  and  _298
REMARK  124  A    between atoms: _298  and  _299
REMARK  125  A    between atoms: _299  and  _300
REMARK  126  A    between atoms: _300  and  _301
REMARK  127  A    between atoms: _310  and  _312
REMARK  128  A    between atoms: _312  and  _313
REMARK  129  A    between atoms: _312  and  _315
REMARK  130  A    between atoms: _315  and  _316
REMARK  131  A    between atoms: _319  and  _321
REMARK  132  A    between atoms: _321  and  _322
REMARK  133  A    between atoms: _321  and  _324
REMARK  134  A    between atoms: _324  and  _325
REMARK  135  A    between atoms: _328  and  _330
REMARK  136  A    between atoms: _330  and  _331
REMARK  137  A    between atoms: _330  and  _333
REMARK  138  A    between atoms: _333  and  _334
REMARK  139  A    between atoms: _337  and  _339
REMARK  140  A    between atoms: _339  and  _340
REMARK  141  A    between atoms: _339  and  _342
REMARK  142  A    between atoms: _342  and  _343
REMARK  143  A    between atoms: _346  and  _348
REMARK  144  A    between atoms: _348  and  _349
REMARK  145  A    between atoms: _348  and  _351
REMARK  146  A    between atoms: _351  and  _352
REMARK  147  A    between atoms: _355  and  _357
REMARK  148  A    between atoms: _357  and  _358
REMARK  149  A    between atoms: _360  and  _362
REMARK  150  A    between atoms: _362  and  _363
REMARK  151  A    between atoms: _366  and  _368
REMARK  152  A    between atoms: _368  and  _369
REMARK  153  A    between atoms: _368  and  _371
REMARK  154  A    between atoms: _371  and  _372
REMARK  155  A    between atoms: _375  and  _377
REMARK  156  A    between atoms: _377  and  _378
REMARK  157  A    between atoms: _377  and  _380
REMARK  158  A    between atoms: _380  and  _381
REMARK  159  A    between atoms: _384  and  _386
REMARK  160  A    between atoms: _386  and  _387
REMARK  161  A    between atoms: _386  and  _389
REMARK  162  A    between atoms: _389  and  _390
REMARK  163  A    between atoms: _393  and  _395
REMARK  164  A    between atoms: _395  and  _396
REMARK  165  A    between atoms: _395  and  _398
REMARK  166  A    between atoms: _401  and  _403
REMARK  167  A    between atoms: _403  and  _404
REMARK  168  A    between atoms: _403  and  _406
REMARK  169  A    between atoms: _406  and  _407
REMARK  170  A    between atoms: _410  and  _412
REMARK  171  A    between atoms: _412  and  _413
REMARK  172  A    between atoms: _412  and  _415
REMARK  173  A    between atoms: _415  and  _416
REMARK  174  A    between atoms: _416  and  _417
REMARK  175  A    between atoms: _417  and  _418
REMARK  176  A    between atoms: _418  and  _419
REMARK  177  A    between atoms: _423  and  _425
REMARK  178  A    between atoms: _425  and  _426
REMARK  179  A    between atoms: _425  and  _428
REMARK  180  A    between atoms: _428  and  _429
REMARK  181  A    between atoms: _429  and  _430
REMARK  182  A    between atoms: _432  and  _434
REMARK  183  A    between atoms: _434  and  _435
REMARK  184  A    between atoms: _434  and  _437
REMARK  185  A    between atoms: _437  and  _438
REMARK  186  A    between atoms: _441  and  _443
REMARK  187  A    between atoms: _443  and  _444
REMARK  188  A    between atoms: _446  and  _448
REMARK  189  A    between atoms: _448  and  _449
REMARK  190  A    between atoms: _451  and  _453
REMARK  191  A    between atoms: _453  and  _454
REMARK  192  A    between atoms: _453  and  _456
REMARK  193  A    between atoms: _456  and  _457
REMARK  194  A    between atoms: _460  and  _462
REMARK  195  A    between atoms: _462  and  _463
REMARK  196  A    between atoms: _465  and  _467
REMARK  197  A    between atoms: _467  and  _468
REMARK  198  A    between atoms: _470  and  _472
REMARK  199  A    between atoms: _472  and  _473
REMARK  200  A    between atoms: _472  and  _475
REMARK  201  A    between atoms: _475  and  _476
REMARK  202  A    between atoms: _482  and  _484
REMARK  203  A    between atoms: _484  and  _485
REMARK  204  A    between atoms: _484  and  _487
REMARK  205  A    between atoms: _487  and  _488
REMARK  206  A    between atoms: _491  and  _493
REMARK  207  A    between atoms: _493  and  _494
REMARK  208  A    between atoms: _493  and  _496
REMARK  209  A    between atoms: _499  and  _501
REMARK  210  A    between atoms: _501  and  _502
REMARK  211  A    between atoms: _501  and  _504
REMARK  212  A    between atoms: _504  and  _505
REMARK  213  A    between atoms: _508  and  _510
REMARK  214  A    between atoms: _510  and  _511
REMARK  215  A    between atoms: _510  and  _513
REMARK  216  A    between atoms: _513  and  _514
REMARK  217  A    between atoms: _518  and  _519
REMARK  218  A    between atoms: _524  and  _526
REMARK  219  A    between atoms: _526  and  _527
REMARK  220  A    between atoms: _526  and  _529
REMARK  221  A    between atoms: _532  and  _534
REMARK  222  A    between atoms: _534  and  _535
REMARK  223  A    between atoms: _534  and  _537
REMARK  224  A    between atoms: _537  and  _538
REMARK  225  A    between atoms: _543  and  _545
REMARK  226  A    between atoms: _545  and  _546
REMARK  227  A    between atoms: _545  and  _548
REMARK  228  A    between atoms: _548  and  _549
REMARK  229  A    between atoms: _552  and  _554
REMARK  230  A    between atoms: _554  and  _555
REMARK  231  A    between atoms: _554  and  _557
REMARK  232  A    between atoms: _557  and  _558
REMARK  233  A    between atoms: _561  and  _563
REMARK  234  A    between atoms: _563  and  _564
REMARK  235  A    between atoms: _566  and  _568
REMARK  236  A    between atoms: _568  and  _569
REMARK  237  A    between atoms: _568  and  _571
REMARK  238  A    between atoms: _571  and  _572
REMARK  239  A    between atoms: _572  and  _573
REMARK  240  A    between atoms: _573  and  _574
REMARK  241  A    between atoms: _583  and  _585
REMARK  242  A    between atoms: _585  and  _586
REMARK  243  A    between atoms: _585  and  _588
REMARK  244  A    between atoms: _588  and  _589
REMARK                            x       y       z     vdW  Elec       q    Type
REMARK                         _______ _______ _______ _____ _____    ______ ____
ROOT
ATOM      1  O   HOH     1       6.309  28.412  -2.976  0.00  0.00    +0.000 OA
ENDROOT
TORSDOF 0
REMARK  Name = ../refined-set-2016/1d4j/1d4j_pocket.pdb
REMARK  244 active torsions:
REMARK  status: ('A' for Active; 'I' for Inactive)
REMARK    1  A    between atoms: _1  and  _3
REMARK    2  A    between atoms: _3  and  _4
REMARK    3  A    between atoms: _3  and  _6
REMARK    4  A    between atoms: _6  and  _7
REMARK    5  A    between atoms: _7  and  _8
REMARK    6  A    between atoms: _8  and  _9
REMARK    7  A    between atoms: _18  and  _20
REMARK    8  A    between atoms: _20  and  _21
REMARK    9  A    between atoms: _20  and  _23
REMARK   10  A    between atoms: _23  and  _24
REMARK   11  A    between atoms: _27  and  _29
REMARK   12  A    between atoms: _29  and  _30
REMARK   13  A    between atoms: _29  and  _32
REMARK   14  A    between atoms: _32  and  _33
REMARK   15  A    between atoms: _36  and  _38
REMARK   16  A    between atoms: _38  and  _39
REMARK   17  A    between atoms: _38  and  _41
REMARK   18  A    between atoms: _41  and  _42
REMARK   19  A    between atoms: _45  and  _47
REMARK   20  A    between atoms: _47  and  _48
REMARK   21  A    between atoms: _47  and  _50
REMARK   22  A    between atoms: _50  and  _51
REMARK   23  A    between atoms: _54  and  _56
REMARK   24  A    between atoms: _56  and  _57
REMARK   25  A    between atoms: _56  and  _59
REMARK   26  A    between atoms: _59  and  _60
REMARK   27  A    between atoms: _63  and  _65
REMARK   28  A    between atoms: _65  and  _66
REMARK   29  A    between atoms: _68  and  _70
REMARK   30  A    between atoms: _70  and  _71
REMARK   31  A    between atoms: _74  and  _76
REMARK   32  A    between atoms: _76  and  _77
REMARK   33  A    between atoms: _76  and  _79
REMARK   34  A    between atoms: _79  and  _80
REMARK   35  A    between atoms: _83  and  _85
REMARK   36  A    between atoms: _85  and  _86
REMARK   37  A    between atoms: _85  and  _88
REMARK   38  A    between atoms: _88  and  _89
REMARK   39  A    between atoms: _92  and  _94
REMARK   40  A    between atoms: _94  and  _95
REMARK   41  A    between atoms: _94  and  _97
REMARK   42  A    between atoms: _97  and  _98
REMARK   43  A    between atoms: _101  and  _103
REMARK   44  A    between atoms: _103  and  _104
REMARK   45  A    between atoms: _103  and  _106
REMARK   46  A    between atoms: _109  and  _111
REMARK   47  A    between atoms: _111  and  _112
REMARK   48  A    between atoms: _111  and  _114
REMARK   49  A    between atoms: _114  and  _115
REMARK   50  A    between atoms: _115  and  _116
REMARK   51  A    between atoms: _116  and  _117
REMARK   52  A    between atoms: _117  and  _118
REMARK   53  A    between atoms: _122  and  _124
REMARK   54  A    between atoms: _124  and  _125
REMARK   55  A    between atoms: _124  and  _127
REMARK   56  A    between atoms: _127  and  _128
REMARK   57  A    between atoms: _128  and  _129
REMARK   58  A    between atoms: _131  and  _133
REMARK   59  A    between atoms: _133  and  _134
REMARK   60  A    between atoms: _133  and  _136
REMARK   61  A    between atoms: _136  and  _137
REMARK   62  A    between atoms: _140  and  _142
REMARK   63  A    between atoms: _142  and  _143
REMARK   64  A    between atoms: _145  and  _147
REMARK   65  A    between atoms: _147  and  _148
REMARK   66  A    between atoms: _150  and  _152
REMARK   67  A    between atoms: _152  and  _153
REMARK   68  A    between atoms: _152  and  _155
REMARK   69  A    between atoms: _155  and  _156
REMARK   70  A    between atoms: _159  and  _161
REMARK   71  A    between atoms: _161  and  _162
REMARK   72  A    between atoms: _164  and  _166
REMARK   73  A    between atoms: _166  and  _167
REMARK   74  A    between atoms: _169  and  _171
REMARK   75  A    between atoms: _171  and  _172
REMARK   76  A    between atoms: _171  and  _174
REMARK   77  A    between atoms: _174  and  _175
REMARK   78  A    between atoms: _181  and  _183
REMARK   79  A    between atoms: _183  and  _184
REMARK   80  A    between atoms: _183  and  _186
REMARK   81  A    between atoms: _186  and  _187
REMARK   82  A    between atoms: _190  and  _192
REMARK   83  A    between atoms: _192  and  _193
REMARK   84  A    between atoms: _192  and  _195
REMARK   85  A    between atoms: _198  and  _200
REMARK   86  A    between atoms: _200  and  _201
REMARK   87  A    between atoms: _200  and  _203
REMARK   88  A    between atoms: _203  and  _204
REMARK   89  A    between atoms: _207  and  _209
REMARK   90  A    between atoms: _209  and  _210
REMARK   91  A    between atoms: _209  and  _212
REMARK   92  A    between atoms: _212  and  _213
REMARK   93  A    between atoms: _217  and  _218
REMARK   94  A    between atoms: _223  and  _225
REMARK   95  A    between atoms: _225  and  _226
REMARK   96  A    between atoms: _225  and  _228
REMARK   97  A    between atoms: _231  and  _233
REMARK   98  A    between atoms: _233  and  _234
REMARK   99  A    between atoms: _233  and  _236
REMARK  100  A    between atoms: _236  and  _237
REMARK  101  A    between atoms: _242  and  _244
REMARK  102  A    between atoms: _244  and  _245
REMARK  103  A    between atoms: _244  and  _247
REMARK  104  A    between atoms: _247  and  _248
REMARK  105  A    between atoms: _251  and  _253
REMARK  106  A    between atoms: _253  and  _254
REMARK  107  A    between atoms: _253  and  _256
REMARK  108  A    between atoms: _256  and  _257
REMARK  109  A    between atoms: _260  and  _262
REMARK  110  A    between atoms: _262  and  _263
REMARK  111  A    between atoms: _265  and  _267
REMARK  112  A    between atoms: _267  and  _268
REMARK  113  A    between atoms: _267  and  _270
REMARK  114  A    between atoms: _270  and  _271
REMARK  115  A    between atoms: _271  and  _272
REMARK  116  A    between atoms: _272  and  _273
REMARK  117  A    between atoms: _282  and  _284
REMARK  118  A    between atoms: _284  and  _285
REMARK  119  A    between atoms: _284  and  _287
REMARK  120  A    between atoms: _287  and  _288
REMARK  121  A    between atoms: _293  and  _295
REMARK  122  A    between atoms: _295  and  _296
REMARK  123  A    between atoms: _295  and  _298
REMARK  124  A    between atoms: _298  and  _299
REMARK  125  A    between atoms: _299  and  _300
REMARK  126  A    between atoms: _300  and  _301
REMARK  127  A    between atoms: _310  and  _312
REMARK  128  A    between atoms: _312  and  _313
REMARK  129  A    between atoms: _312  and  _315
REMARK  130  A    between atoms: _315  and  _316
REMARK  131  A    between atoms: _319  and  _321
REMARK  132  A    between atoms: _321  and  _322
REMARK  133  A    between atoms: _321  and  _324
REMARK  134  A    between atoms: _324  and  _325
REMARK  135  A    between atoms: _328  and  _330
REMARK  136  A    between atoms: _330  and  _331
REMARK  137  A    between atoms: _330  and  _333
REMARK  138  A    between atoms: _333  and  _334
REMARK  139  A    between atoms: _337  and  _339
REMARK  140  A    between atoms: _339  and  _340
REMARK  141  A    between atoms: _339  and  _342
REMARK  142  A    between atoms: _342  and  _343
REMARK  143  A    between atoms: _346  and  _348
REMARK  144  A    between atoms: _348  and  _349
REMARK  145  A    between atoms: _348  and  _351
REMARK  146  A    between atoms: _351  and  _352
REMARK  147  A    between atoms: _355  and  _357
REMARK  148  A    between atoms: _357  and  _358
REMARK  149  A    between atoms: _360  and  _362
REMARK  150  A    between atoms: _362  and  _363
REMARK  151  A    between atoms: _366  and  _368
REMARK  152  A    between atoms: _368  and  _369
REMARK  153  A    between atoms: _368  and  _371
REMARK  154  A    between atoms: _371  and  _372
REMARK  155  A    between atoms: _375  and  _377
REMARK  156  A    between atoms: _377  and  _378
REMARK  157  A    between atoms: _377  and  _380
REMARK  158  A    between atoms: _380  and  _381
REMARK  159  A    between atoms: _384  and  _386
REMARK  160  A    between atoms: _386  and  _387
REMARK  161  A    between atoms: _386  and  _389
REMARK  162  A    between atoms: _389  and  _390
REMARK  163  A    between atoms: _393  and  _395
REMARK  164  A    between atoms: _395  and  _396
REMARK  165  A    between atoms: _395  and  _398
REMARK  166  A    between atoms: _401  and  _403
REMARK  167  A    between atoms: _403  and  _404
REMARK  168  A    between atoms: _403  and  _406
REMARK  169  A    between atoms: _406  and  _407
REMARK  170  A    between atoms: _410  and  _412
REMARK  171  A    between atoms: _412  and  _413
REMARK  172  A    between atoms: _412  and  _415
REMARK  173  A    between atoms: _415  and  _416
REMARK  174  A    between atoms: _416  and  _417
REMARK  175  A    between atoms: _417  and  _418
REMARK  176  A    between atoms: _418  and  _419
REMARK  177  A    between atoms: _423  and  _425
REMARK  178  A    between atoms: _425  and  _426
REMARK  179  A    between atoms: _425  and  _428
REMARK  180  A    between atoms: _428  and  _429
REMARK  181  A    between atoms: _429  and  _430
REMARK  182  A    between atoms: _432  and  _434
REMARK  183  A    between atoms: _434  and  _435
REMARK  184  A    between atoms: _434  and  _437
REMARK  185  A    between atoms: _437  and  _438
REMARK  186  A    between atoms: _441  and  _443
REMARK  187  A    between atoms: _443  and  _444
REMARK  188  A    between atoms: _446  and  _448
REMARK  189  A    between atoms: _448  and  _449
REMARK  190  A    between atoms: _451  and  _453
REMARK  191  A    between atoms: _453  and  _454
REMARK  192  A    between atoms: _453  and  _456
REMARK  193  A    between atoms: _456  and  _457
REMARK  194  A    between atoms: _460  and  _462
REMARK  195  A    between atoms: _462  and  _463
REMARK  196  A    between atoms: _465  and  _467
REMARK  197  A    between atoms: _467  and  _468
REMARK  198  A    between atoms: _470  and  _472
REMARK  199  A    between atoms: _472  and  _473
REMARK  200  A    between atoms: _472  and  _475
REMARK  201  A    between atoms: _475  and  _476
REMARK  202  A    between atoms: _482  and  _484
REMARK  203  A    between atoms: _484  and  _485
REMARK  204  A    between atoms: _484  and  _487
REMARK  205  A    between atoms: _487  and  _488
REMARK  206  A    between atoms: _491  and  _493
REMARK  207  A    between atoms: _493  and  _494
REMARK  208  A    between atoms: _493  and  _496
REMARK  209  A    between atoms: _499  and  _501
REMARK  210  A    between atoms: _501  and  _502
REMARK  211  A    between atoms: _501  and  _504
REMARK  212  A    between atoms: _504  and  _505
REMARK  213  A    between atoms: _508  and  _510
REMARK  214  A    between atoms: _510  and  _511
REMARK  215  A    between atoms: _510  and  _513
REMARK  216  A    between atoms: _513  and  _514
REMARK  217  A    between atoms: _518  and  _519
REMARK  218  A    between atoms: _524  and  _526
REMARK  219  A    between atoms: _526  and  _527
REMARK  220  A    between atoms: _526  and  _529
REMARK  221  A    between atoms: _532  and  _534
REMARK  222  A    between atoms: _534  and  _535
REMARK  223  A    between atoms: _534  and  _537
REMARK  224  A    between atoms: _537  and  _538
REMARK  225  A    between atoms: _543  and  _545
REMARK  226  A    between atoms: _545  and  _546
REMARK  227  A    between atoms: _545  and  _548
REMARK  228  A    between atoms: _548  and  _549
REMARK  229  A    between atoms: _552  and  _554
REMARK  230  A    between atoms: _554  and  _555
REMARK  231  A    between atoms: _554  and  _557
REMARK  232  A    between atoms: _557  and  _558
REMARK  233  A    between atoms: _561  and  _563
REMARK  234  A    between atoms: _563  and  _564
REMARK  235  A    between atoms: _566  and  _568
REMARK  236  A    between atoms: _568  and  _569
REMARK  237  A    between atoms: _568  and  _571
REMARK  238  A    between atoms: _571  and  _572
REMARK  239  A    between atoms: _572  and  _573
REMARK  240  A    between atoms: _573  and  _574
REMARK  241  A    between atoms: _583  and  _585
REMARK  242  A    between atoms: _585  and  _586
REMARK  243  A    between atoms: _585  and  _588
REMARK  244  A    between atoms: _588  and  _589
REMARK                            x       y       z     vdW  Elec       q    Type
REMARK                         _______ _______ _______ _____ _____    ______ ____
ROOT
ATOM      1  O   HOH     1      25.169  19.576   0.454  0.00  0.00    +0.000 OA
ENDROOT
TORSDOF 0
REMARK  Name = ../refined-set-2016/1d4j/1d4j_pocket.pdb
REMARK  244 active torsions:
REMARK  status: ('A' for Active; 'I' for Inactive)
REMARK    1  A    between atoms: _1  and  _3
REMARK    2  A    between atoms: _3  and  _4
REMARK    3  A    between atoms: _3  and  _6
REMARK    4  A    between atoms: _6  and  _7
REMARK    5  A    between atoms: _7  and  _8
REMARK    6  A    between atoms: _8  and  _9
REMARK    7  A    between atoms: _18  and  _20
REMARK    8  A    between atoms: _20  and  _21
REMARK    9  A    between atoms: _20  and  _23
REMARK   10  A    between atoms: _23  and  _24
REMARK   11  A    between atoms: _27  and  _29
REMARK   12  A    between atoms: _29  and  _30
REMARK   13  A    between atoms: _29  and  _32
REMARK   14  A    between atoms: _32  and  _33
REMARK   15  A    between atoms: _36  and  _38
REMARK   16  A    between atoms: _38  and  _39
REMARK   17  A    between atoms: _38  and  _41
REMARK   18  A    between atoms: _41  and  _42
REMARK   19  A    between atoms: _45  and  _47
REMARK   20  A    between atoms: _47  and  _48
REMARK   21  A    between atoms: _47  and  _50
REMARK   22  A    between atoms: _50  and  _51
REMARK   23  A    between atoms: _54  and  _56
REMARK   24  A    between atoms: _56  and  _57
REMARK   25  A    between atoms: _56  and  _59
REMARK   26  A    between atoms: _59  and  _60
REMARK   27  A    between atoms: _63  and  _65
REMARK   28  A    between atoms: _65  and  _66
REMARK   29  A    between atoms: _68  and  _70
REMARK   30  A    between atoms: _70  and  _71
REMARK   31  A    between atoms: _74  and  _76
REMARK   32  A    between atoms: _76  and  _77
REMARK   33  A    between atoms: _76  and  _79
REMARK   34  A    between atoms: _79  and  _80
REMARK   35  A    between atoms: _83  and  _85
REMARK   36  A    between atoms: _85  and  _86
REMARK   37  A    between atoms: _85  and  _88
REMARK   38  A    between atoms: _88  and  _89
REMARK   39  A    between atoms: _92  and  _94
REMARK   40  A    between atoms: _94  and  _95
REMARK   41  A    between atoms: _94  and  _97
REMARK   42  A    between atoms: _97  and  _98
REMARK   43  A    between atoms: _101  and  _103
REMARK   44  A    between atoms: _103  and  _104
REMARK   45  A    between atoms: _103  and  _106
REMARK   46  A    between atoms: _109  and  _111
REMARK   47  A    between atoms: _111  and  _112
REMARK   48  A    between atoms: _111  and  _114
REMARK   49  A    between atoms: _114  and  _115
REMARK   50  A    between atoms: _115  and  _116
REMARK   51  A    between atoms: _116  and  _117
REMARK   52  A    between atoms: _117  and  _118
REMARK   53  A    between atoms: _122  and  _124
REMARK   54  A    between atoms: _124  and  _125
REMARK   55  A    between atoms: _124  and  _127
REMARK   56  A    between atoms: _127  and  _128
REMARK   57  A    between atoms: _128  and  _129
REMARK   58  A    between atoms: _131  and  _133
REMARK   59  A    between atoms: _133  and  _134
REMARK   60  A    between atoms: _133  and  _136
REMARK   61  A    between atoms: _136  and  _137
REMARK   62  A    between atoms: _140  and  _142
REMARK   63  A    between atoms: _142  and  _143
REMARK   64  A    between atoms: _145  and  _147
REMARK   65  A    between atoms: _147  and  _148
REMARK   66  A    between atoms: _150  and  _152
REMARK   67  A    between atoms: _152  and  _153
REMARK   68  A    between atoms: _152  and  _155
REMARK   69  A    between atoms: _155  and  _156
REMARK   70  A    between atoms: _159  and  _161
REMARK   71  A    between atoms: _161  and  _162
REMARK   72  A    between atoms: _164  and  _166
REMARK   73  A    between atoms: _166  and  _167
REMARK   74  A    between atoms: _169  and  _171
REMARK   75  A    between atoms: _171  and  _172
REMARK   76  A    between atoms: _171  and  _174
REMARK   77  A    between atoms: _174  and  _175
REMARK   78  A    between atoms: _181  and  _183
REMARK   79  A    between atoms: _183  and  _184
REMARK   80  A    between atoms: _183  and  _186
REMARK   81  A    between atoms: _186  and  _187
REMARK   82  A    between atoms: _190  and  _192
REMARK   83  A    between atoms: _192  and  _193
REMARK   84  A    between atoms: _192  and  _195
REMARK   85  A    between atoms: _198  and  _200
REMARK   86  A    between atoms: _200  and  _201
REMARK   87  A    between atoms: _200  and  _203
REMARK   88  A    between atoms: _203  and  _204
REMARK   89  A    between atoms: _207  and  _209
REMARK   90  A    between atoms: _209  and  _210
REMARK   91  A    between atoms: _209  and  _212
REMARK   92  A    between atoms: _212  and  _213
REMARK   93  A    between atoms: _217  and  _218
REMARK   94  A    between atoms: _223  and  _225
REMARK   95  A    between atoms: _225  and  _226
REMARK   96  A    between atoms: _225  and  _228
REMARK   97  A    between atoms: _231  and  _233
REMARK   98  A    between atoms: _233  and  _234
REMARK   99  A    between atoms: _233  and  _236
REMARK  100  A    between atoms: _236  and  _237
REMARK  101  A    between atoms: _242  and  _244
REMARK  102  A    between atoms: _244  and  _245
REMARK  103  A    between atoms: _244  and  _247
REMARK  104  A    between atoms: _247  and  _248
REMARK  105  A    between atoms: _251  and  _253
REMARK  106  A    between atoms: _253  and  _254
REMARK  107  A    between atoms: _253  and  _256
REMARK  108  A    between atoms: _256  and  _257
REMARK  109  A    between atoms: _260  and  _262
REMARK  110  A    between atoms: _262  and  _263
REMARK  111  A    between atoms: _265  and  _267
REMARK  112  A    between atoms: _267  and  _268
REMARK  113  A    between atoms: _267  and  _270
REMARK  114  A    between atoms: _270  and  _271
REMARK  115  A    between atoms: _271  and  _272
REMARK  116  A    between atoms: _272  and  _273
REMARK  117  A    between atoms: _282  and  _284
REMARK  118  A    between atoms: _284  and  _285
REMARK  119  A    between atoms: _284  and  _287
REMARK  120  A    between atoms: _287  and  _288
REMARK  121  A    between atoms: _293  and  _295
REMARK  122  A    between atoms: _295  and  _296
REMARK  123  A    between atoms: _295  and  _298
REMARK  124  A    between atoms: _298  and  _299
REMARK  125  A    between atoms: _299  and  _300
REMARK  126  A    between atoms: _300  and  _301
REMARK  127  A    between atoms: _310  and  _312
REMARK  128  A    between atoms: _312  and  _313
REMARK  129  A    between atoms: _312  and  _315
REMARK  130  A    between atoms: _315  and  _316
REMARK  131  A    between atoms: _319  and  _321
REMARK  132  A    between atoms: _321  and  _322
REMARK  133  A    between atoms: _321  and  _324
REMARK  134  A    between atoms: _324  and  _325
REMARK  135  A    between atoms: _328  and  _330
REMARK  136  A    between atoms: _330  and  _331
REMARK  137  A    between atoms: _330  and  _333
REMARK  138  A    between atoms: _333  and  _334
REMARK  139  A    between atoms: _337  and  _339
REMARK  140  A    between atoms: _339  and  _340
REMARK  141  A    between atoms: _339  and  _342
REMARK  142  A    between atoms: _342  and  _343
REMARK  143  A    between atoms: _346  and  _348
REMARK  144  A    between atoms: _348  and  _349
REMARK  145  A    between atoms: _348  and  _351
REMARK  146  A    between atoms: _351  and  _352
REMARK  147  A    between atoms: _355  and  _357
REMARK  148  A    between atoms: _357  and  _358
REMARK  149  A    between atoms: _360  and  _362
REMARK  150  A    between atoms: _362  and  _363
REMARK  151  A    between atoms: _366  and  _368
REMARK  152  A    between atoms: _368  and  _369
REMARK  153  A    between atoms: _368  and  _371
REMARK  154  A    between atoms: _371  and  _372
REMARK  155  A    between atoms: _375  and  _377
REMARK  156  A    between atoms: _377  and  _378
REMARK  157  A    between atoms: _377  and  _380
REMARK  158  A    between atoms: _380  and  _381
REMARK  159  A    between atoms: _384  and  _386
REMARK  160  A    between atoms: _386  and  _387
REMARK  161  A    between atoms: _386  and  _389
REMARK  162  A    between atoms: _389  and  _390
REMARK  163  A    between atoms: _393  and  _395
REMARK  164  A    between atoms: _395  and  _396
REMARK  165  A    between atoms: _395  and  _398
REMARK  166  A    between atoms: _401  and  _403
REMARK  167  A    between atoms: _403  and  _404
REMARK  168  A    between atoms: _403  and  _406
REMARK  169  A    between atoms: _406  and  _407
REMARK  170  A    between atoms: _410  and  _412
REMARK  171  A    between atoms: _412  and  _413
REMARK  172  A    between atoms: _412  and  _415
REMARK  173  A    between atoms: _415  and  _416
REMARK  174  A    between atoms: _416  and  _417
REMARK  175  A    between atoms: _417  and  _418
REMARK  176  A    between atoms: _418  and  _419
REMARK  177  A    between atoms: _423  and  _425
REMARK  178  A    between atoms: _425  and  _426
REMARK  179  A    between atoms: _425  and  _428
REMARK  180  A    between atoms: _428  and  _429
REMARK  181  A    between atoms: _429  and  _430
REMARK  182  A    between atoms: _432  and  _434
REMARK  183  A    between atoms: _434  and  _435
REMARK  184  A    between atoms: _434  and  _437
REMARK  185  A    between atoms: _437  and  _438
REMARK  186  A    between atoms: _441  and  _443
REMARK  187  A    between atoms: _443  and  _444
REMARK  188  A    between atoms: _446  and  _448
REMARK  189  A    between atoms: _448  and  _449
REMARK  190  A    between atoms: _451  and  _453
REMARK  191  A    between atoms: _453  and  _454
REMARK  192  A    between atoms: _453  and  _456
REMARK  193  A    between atoms: _456  and  _457
REMARK  194  A    between atoms: _460  and  _462
REMARK  195  A    between atoms: _462  and  _463
REMARK  196  A    between atoms: _465  and  _467
REMARK  197  A    between atoms: _467  and  _468
REMARK  198  A    between atoms: _470  and  _472
REMARK  199  A    between atoms: _472  and  _473
REMARK  200  A    between atoms: _472  and  _475
REMARK  201  A    between atoms: _475  and  _476
REMARK  202  A    between atoms: _482  and  _484
REMARK  203  A    between atoms: _484  and  _485
REMARK  204  A    between atoms: _484  and  _487
REMARK  205  A    between atoms: _487  and  _488
REMARK  206  A    between atoms: _491  and  _493
REMARK  207  A    between atoms: _493  and  _494
REMARK  208  A    between atoms: _493  and  _496
REMARK  209  A    between atoms: _499  and  _501
REMARK  210  A    between atoms: _501  and  _502
REMARK  211  A    between atoms: _501  and  _504
REMARK  212  A    between atoms: _504  and  _505
REMARK  213  A    between atoms: _508  and  _510
REMARK  214  A    between atoms: _510  and  _511
REMARK  215  A    between atoms: _510  and  _513
REMARK  216  A    between atoms: _513  and  _514
REMARK  217  A    between atoms: _518  and  _519
REMARK  218  A    between atoms: _524  and  _526
REMARK  219  A    between atoms: _526  and  _527
REMARK  220  A    between atoms: _526  and  _529
REMARK  221  A    between atoms: _532  and  _534
REMARK  222  A    between atoms: _534  and  _535
REMARK  223  A    between atoms: _534  and  _537
REMARK  224  A    between atoms: _537  and  _538
REMARK  225  A    between atoms: _543  and  _545
REMARK  226  A    between atoms: _545  and  _546
REMARK  227  A    between atoms: _545  and  _548
REMARK  228  A    between atoms: _548  and  _549
REMARK  229  A    between atoms: _552  and  _554
REMARK  230  A    between atoms: _554  and  _555
REMARK  231  A    between atoms: _554  and  _557
REMARK  232  A    between atoms: _557  and  _558
REMARK  233  A    between atoms: _561  and  _563
REMARK  234  A    between atoms: _563  and  _564
REMARK  235  A    between atoms: _566  and  _568
REMARK  236  A    between atoms: _568  and  _569
REMARK  237  A    between atoms: _568  and  _571
REMARK  238  A    between atoms: _571  and  _572
REMARK  239  A    between atoms: _572  and  _573
REMARK  240  A    between atoms: _573  and  _574
REMARK  241  A    between atoms: _583  and  _585
REMARK  242  A    between atoms: _585  and  _586
REMARK  243  A    between atoms: _585  and  _588
REMARK  244  A    between atoms: _588  and  _589
REMARK                            x       y       z     vdW  Elec       q    Type
REMARK                         _______ _______ _______ _____ _____    ______ ____
ROOT
ATOM      1  O   HOH     1      18.535  14.574   6.760  0.00  0.00    +0.000 OA
ENDROOT
TORSDOF 0
REMARK  Name = ../refined-set-2016/1d4j/1d4j_pocket.pdb
REMARK  244 active torsions:
REMARK  status: ('A' for Active; 'I' for Inactive)
REMARK    1  A    between atoms: _1  and  _3
REMARK    2  A    between atoms: _3  and  _4
REMARK    3  A    between atoms: _3  and  _6
REMARK    4  A    between atoms: _6  and  _7
REMARK    5  A    between atoms: _7  and  _8
REMARK    6  A    between atoms: _8  and  _9
REMARK    7  A    between atoms: _18  and  _20
REMARK    8  A    between atoms: _20  and  _21
REMARK    9  A    between atoms: _20  and  _23
REMARK   10  A    between atoms: _23  and  _24
REMARK   11  A    between atoms: _27  and  _29
REMARK   12  A    between atoms: _29  and  _30
REMARK   13  A    between atoms: _29  and  _32
REMARK   14  A    between atoms: _32  and  _33
REMARK   15  A    between atoms: _36  and  _38
REMARK   16  A    between atoms: _38  and  _39
REMARK   17  A    between atoms: _38  and  _41
REMARK   18  A    between atoms: _41  and  _42
REMARK   19  A    between atoms: _45  and  _47
REMARK   20  A    between atoms: _47  and  _48
REMARK   21  A    between atoms: _47  and  _50
REMARK   22  A    between atoms: _50  and  _51
REMARK   23  A    between atoms: _54  and  _56
REMARK   24  A    between atoms: _56  and  _57
REMARK   25  A    between atoms: _56  and  _59
REMARK   26  A    between atoms: _59  and  _60
REMARK   27  A    between atoms: _63  and  _65
REMARK   28  A    between atoms: _65  and  _66
REMARK   29  A    between atoms: _68  and  _70
REMARK   30  A    between atoms: _70  and  _71
REMARK   31  A    between atoms: _74  and  _76
REMARK   32  A    between atoms: _76  and  _77
REMARK   33  A    between atoms: _76  and  _79
REMARK   34  A    between atoms: _79  and  _80
REMARK   35  A    between atoms: _83  and  _85
REMARK   36  A    between atoms: _85  and  _86
REMARK   37  A    between atoms: _85  and  _88
REMARK   38  A    between atoms: _88  and  _89
REMARK   39  A    between atoms: _92  and  _94
REMARK   40  A    between atoms: _94  and  _95
REMARK   41  A    between atoms: _94  and  _97
REMARK   42  A    between atoms: _97  and  _98
REMARK   43  A    between atoms: _101  and  _103
REMARK   44  A    between atoms: _103  and  _104
REMARK   45  A    between atoms: _103  and  _106
REMARK   46  A    between atoms: _109  and  _111
REMARK   47  A    between atoms: _111  and  _112
REMARK   48  A    between atoms: _111  and  _114
REMARK   49  A    between atoms: _114  and  _115
REMARK   50  A    between atoms: _115  and  _116
REMARK   51  A    between atoms: _116  and  _117
REMARK   52  A    between atoms: _117  and  _118
REMARK   53  A    between atoms: _122  and  _124
REMARK   54  A    between atoms: _124  and  _125
REMARK   55  A    between atoms: _124  and  _127
REMARK   56  A    between atoms: _127  and  _128
REMARK   57  A    between atoms: _128  and  _129
REMARK   58  A    between atoms: _131  and  _133
REMARK   59  A    between atoms: _133  and  _134
REMARK   60  A    between atoms: _133  and  _136
REMARK   61  A    between atoms: _136  and  _137
REMARK   62  A    between atoms: _140  and  _142
REMARK   63  A    between atoms: _142  and  _143
REMARK   64  A    between atoms: _145  and  _147
REMARK   65  A    between atoms: _147  and  _148
REMARK   66  A    between atoms: _150  and  _152
REMARK   67  A    between atoms: _152  and  _153
REMARK   68  A    between atoms: _152  and  _155
REMARK   69  A    between atoms: _155  and  _156
REMARK   70  A    between atoms: _159  and  _161
REMARK   71  A    between atoms: _161  and  _162
REMARK   72  A    between atoms: _164  and  _166
REMARK   73  A    between atoms: _166  and  _167
REMARK   74  A    between atoms: _169  and  _171
REMARK   75  A    between atoms: _171  and  _172
REMARK   76  A    between atoms: _171  and  _174
REMARK   77  A    between atoms: _174  and  _175
REMARK   78  A    between atoms: _181  and  _183
REMARK   79  A    between atoms: _183  and  _184
REMARK   80  A    between atoms: _183  and  _186
REMARK   81  A    between atoms: _186  and  _187
REMARK   82  A    between atoms: _190  and  _192
REMARK   83  A    between atoms: _192  and  _193
REMARK   84  A    between atoms: _192  and  _195
REMARK   85  A    between atoms: _198  and  _200
REMARK   86  A    between atoms: _200  and  _201
REMARK   87  A    between atoms: _200  and  _203
REMARK   88  A    between atoms: _203  and  _204
REMARK   89  A    between atoms: _207  and  _209
REMARK   90  A    between atoms: _209  and  _210
REMARK   91  A    between atoms: _209  and  _212
REMARK   92  A    between atoms: _212  and  _213
REMARK   93  A    between atoms: _217  and  _218
REMARK   94  A    between atoms: _223  and  _225
REMARK   95  A    between atoms: _225  and  _226
REMARK   96  A    between atoms: _225  and  _228
REMARK   97  A    between atoms: _231  and  _233
REMARK   98  A    between atoms: _233  and  _234
REMARK   99  A    between atoms: _233  and  _236
REMARK  100  A    between atoms: _236  and  _237
REMARK  101  A    between atoms: _242  and  _244
REMARK  102  A    between atoms: _244  and  _245
REMARK  103  A    between atoms: _244  and  _247
REMARK  104  A    between atoms: _247  and  _248
REMARK  105  A    between atoms: _251  and  _253
REMARK  106  A    between atoms: _253  and  _254
REMARK  107  A    between atoms: _253  and  _256
REMARK  108  A    between atoms: _256  and  _257
REMARK  109  A    between atoms: _260  and  _262
REMARK  110  A    between atoms: _262  and  _263
REMARK  111  A    between atoms: _265  and  _267
REMARK  112  A    between atoms: _267  and  _268
REMARK  113  A    between atoms: _267  and  _270
REMARK  114  A    between atoms: _270  and  _271
REMARK  115  A    between atoms: _271  and  _272
REMARK  116  A    between atoms: _272  and  _273
REMARK  117  A    between atoms: _282  and  _284
REMARK  118  A    between atoms: _284  and  _285
REMARK  119  A    between atoms: _284  and  _287
REMARK  120  A    between atoms: _287  and  _288
REMARK  121  A    between atoms: _293  and  _295
REMARK  122  A    between atoms: _295  and  _296
REMARK  123  A    between atoms: _295  and  _298
REMARK  124  A    between atoms: _298  and  _299
REMARK  125  A    between atoms: _299  and  _300
REMARK  126  A    between atoms: _300  and  _301
REMARK  127  A    between atoms: _310  and  _312
REMARK  128  A    between atoms: _312  and  _313
REMARK  129  A    between atoms: _312  and  _315
REMARK  130  A    between atoms: _315  and  _316
REMARK  131  A    between atoms: _319  and  _321
REMARK  132  A    between atoms: _321  and  _322
REMARK  133  A    between atoms: _321  and  _324
REMARK  134  A    between atoms: _324  and  _325
REMARK  135  A    between atoms: _328  and  _330
REMARK  136  A    between atoms: _330  and  _331
REMARK  137  A    between atoms: _330  and  _333
REMARK  138  A    between atoms: _333  and  _334
REMARK  139  A    between atoms: _337  and  _339
REMARK  140  A    between atoms: _339  and  _340
REMARK  141  A    between atoms: _339  and  _342
REMARK  142  A    between atoms: _342  and  _343
REMARK  143  A    between atoms: _346  and  _348
REMARK  144  A    between atoms: _348  and  _349
REMARK  145  A    between atoms: _348  and  _351
REMARK  146  A    between atoms: _351  and  _352
REMARK  147  A    between atoms: _355  and  _357
REMARK  148  A    between atoms: _357  and  _358
REMARK  149  A    between atoms: _360  and  _362
REMARK  150  A    between atoms: _362  and  _363
REMARK  151  A    between atoms: _366  and  _368
REMARK  152  A    between atoms: _368  and  _369
REMARK  153  A    between atoms: _368  and  _371
REMARK  154  A    between atoms: _371  and  _372
REMARK  155  A    between atoms: _375  and  _377
REMARK  156  A    between atoms: _377  and  _378
REMARK  157  A    between atoms: _377  and  _380
REMARK  158  A    between atoms: _380  and  _381
REMARK  159  A    between atoms: _384  and  _386
REMARK  160  A    between atoms: _386  and  _387
REMARK  161  A    between atoms: _386  and  _389
REMARK  162  A    between atoms: _389  and  _390
REMARK  163  A    between atoms: _393  and  _395
REMARK  164  A    between atoms: _395  and  _396
REMARK  165  A    between atoms: _395  and  _398
REMARK  166  A    between atoms: _401  and  _403
REMARK  167  A    between atoms: _403  and  _404
REMARK  168  A    between atoms: _403  and  _406
REMARK  169  A    between atoms: _406  and  _407
REMARK  170  A    between atoms: _410  and  _412
REMARK  171  A    between atoms: _412  and  _413
REMARK  172  A    between atoms: _412  and  _415
REMARK  173  A    between atoms: _415  and  _416
REMARK  174  A    between atoms: _416  and  _417
REMARK  175  A    between atoms: _417  and  _418
REMARK  176  A    between atoms: _418  and  _419
REMARK  177  A    between atoms: _423  and  _425
REMARK  178  A    between atoms: _425  and  _426
REMARK  179  A    between atoms: _425  and  _428
REMARK  180  A    between atoms: _428  and  _429
REMARK  181  A    between atoms: _429  and  _430
REMARK  182  A    between atoms: _432  and  _434
REMARK  183  A    between atoms: _434  and  _435
REMARK  184  A    between atoms: _434  and  _437
REMARK  185  A    between atoms: _437  and  _438
REMARK  186  A    between atoms: _441  and  _443
REMARK  187  A    between atoms: _443  and  _444
REMARK  188  A    between atoms: _446  and  _448
REMARK  189  A    between atoms: _448  and  _449
REMARK  190  A    between atoms: _451  and  _453
REMARK  191  A    between atoms: _453  and  _454
REMARK  192  A    between atoms: _453  and  _456
REMARK  193  A    between atoms: _456  and  _457
REMARK  194  A    between atoms: _460  and  _462
REMARK  195  A    between atoms: _462  and  _463
REMARK  196  A    between atoms: _465  and  _467
REMARK  197  A    between atoms: _467  and  _468
REMARK  198  A    between atoms: _470  and  _472
REMARK  199  A    between atoms: _472  and  _473
REMARK  200  A    between atoms: _472  and  _475
REMARK  201  A    between atoms: _475  and  _476
REMARK  202  A    between atoms: _482  and  _484
REMARK  203  A    between atoms: _484  and  _485
REMARK  204  A    between atoms: _484  and  _487
REMARK  205  A    between atoms: _487  and  _488
REMARK  206  A    between atoms: _491  and  _493
REMARK  207  A    between atoms: _493  and  _494
REMARK  208  A    between atoms: _493  and  _496
REMARK  209  A    between atoms: _499  and  _501
REMARK  210  A    between atoms: _501  and  _502
REMARK  211  A    between atoms: _501  and  _504
REMARK  212  A    between atoms: _504  and  _505
REMARK  213  A    between atoms: _508  and  _510
REMARK  214  A    between atoms: _510  and  _511
REMARK  215  A    between atoms: _510  and  _513
REMARK  216  A    between atoms: _513  and  _514
REMARK  217  A    between atoms: _518  and  _519
REMARK  218  A    between atoms: _524  and  _526
REMARK  219  A    between atoms: _526  and  _527
REMARK  220  A    between atoms: _526  and  _529
REMARK  221  A    between atoms: _532  and  _534
REMARK  222  A    between atoms: _534  and  _535
REMARK  223  A    between atoms: _534  and  _537
REMARK  224  A    between atoms: _537  and  _538
REMARK  225  A    between atoms: _543  and  _545
REMARK  226  A    between atoms: _545  and  _546
REMARK  227  A    between atoms: _545  and  _548
REMARK  228  A    between atoms: _548  and  _549
REMARK  229  A    between atoms: _552  and  _554
REMARK  230  A    between atoms: _554  and  _555
REMARK  231  A    between atoms: _554  and  _557
REMARK  232  A    between atoms: _557  and  _558
REMARK  233  A    between atoms: _561  and  _563
REMARK  234  A    between atoms: _563  and  _564
REMARK  235  A    between atoms: _566  and  _568
REMARK  236  A    between atoms: _568  and  _569
REMARK  237  A    between atoms: _568  and  _571
REMARK  238  A    between atoms: _571  and  _572
REMARK  239  A    between atoms: _572  and  _573
REMARK  240  A    between atoms: _573  and  _574
REMARK  241  A    between atoms: _583  and  _585
REMARK  242  A    between atoms: _585  and  _586
REMARK  243  A    between atoms: _585  and  _588
REMARK  244  A    between atoms: _588  and  _589
REMARK                            x       y       z     vdW  Elec       q    Type
REMARK                         _______ _______ _______ _____ _____    ______ ____
ROOT
ATOM      1  O   HOH     1      14.081  15.927  11.479  0.00  0.00    +0.000 OA
ENDROOT
TORSDOF 0
REMARK  Name = ../refined-set-2016/1d4j/1d4j_pocket.pdb
REMARK  244 active torsions:
REMARK  status: ('A' for Active; 'I' for Inactive)
REMARK    1  A    between atoms: _1  and  _3
REMARK    2  A    between atoms: _3  and  _4
REMARK    3  A    between atoms: _3  and  _6
REMARK    4  A    between atoms: _6  and  _7
REMARK    5  A    between atoms: _7  and  _8
REMARK    6  A    between atoms: _8  and  _9
REMARK    7  A    between atoms: _18  and  _20
REMARK    8  A    between atoms: _20  and  _21
REMARK    9  A    between atoms: _20  and  _23
REMARK   10  A    between atoms: _23  and  _24
REMARK   11  A    between atoms: _27  and  _29
REMARK   12  A    between atoms: _29  and  _30
REMARK   13  A    between atoms: _29  and  _32
REMARK   14  A    between atoms: _32  and  _33
REMARK   15  A    between atoms: _36  and  _38
REMARK   16  A    between atoms: _38  and  _39
REMARK   17  A    between atoms: _38  and  _41
REMARK   18  A    between atoms: _41  and  _42
REMARK   19  A    between atoms: _45  and  _47
REMARK   20  A    between atoms: _47  and  _48
REMARK   21  A    between atoms: _47  and  _50
REMARK   22  A    between atoms: _50  and  _51
REMARK   23  A    between atoms: _54  and  _56
REMARK   24  A    between atoms: _56  and  _57
REMARK   25  A    between atoms: _56  and  _59
REMARK   26  A    between atoms: _59  and  _60
REMARK   27  A    between atoms: _63  and  _65
REMARK   28  A    between atoms: _65  and  _66
REMARK   29  A    between atoms: _68  and  _70
REMARK   30  A    between atoms: _70  and  _71
REMARK   31  A    between atoms: _74  and  _76
REMARK   32  A    between atoms: _76  and  _77
REMARK   33  A    between atoms: _76  and  _79
REMARK   34  A    between atoms: _79  and  _80
REMARK   35  A    between atoms: _83  and  _85
REMARK   36  A    between atoms: _85  and  _86
REMARK   37  A    between atoms: _85  and  _88
REMARK   38  A    between atoms: _88  and  _89
REMARK   39  A    between atoms: _92  and  _94
REMARK   40  A    between atoms: _94  and  _95
REMARK   41  A    between atoms: _94  and  _97
REMARK   42  A    between atoms: _97  and  _98
REMARK   43  A    between atoms: _101  and  _103
REMARK   44  A    between atoms: _103  and  _104
REMARK   45  A    between atoms: _103  and  _106
REMARK   46  A    between atoms: _109  and  _111
REMARK   47  A    between atoms: _111  and  _112
REMARK   48  A    between atoms: _111  and  _114
REMARK   49  A    between atoms: _114  and  _115
REMARK   50  A    between atoms: _115  and  _116
REMARK   51  A    between atoms: _116  and  _117
REMARK   52  A    between atoms: _117  and  _118
REMARK   53  A    between atoms: _122  and  _124
REMARK   54  A    between atoms: _124  and  _125
REMARK   55  A    between atoms: _124  and  _127
REMARK   56  A    between atoms: _127  and  _128
REMARK   57  A    between atoms: _128  and  _129
REMARK   58  A    between atoms: _131  and  _133
REMARK   59  A    between atoms: _133  and  _134
REMARK   60  A    between atoms: _133  and  _136
REMARK   61  A    between atoms: _136  and  _137
REMARK   62  A    between atoms: _140  and  _142
REMARK   63  A    between atoms: _142  and  _143
REMARK   64  A    between atoms: _145  and  _147
REMARK   65  A    between atoms: _147  and  _148
REMARK   66  A    between atoms: _150  and  _152
REMARK   67  A    between atoms: _152  and  _153
REMARK   68  A    between atoms: _152  and  _155
REMARK   69  A    between atoms: _155  and  _156
REMARK   70  A    between atoms: _159  and  _161
REMARK   71  A    between atoms: _161  and  _162
REMARK   72  A    between atoms: _164  and  _166
REMARK   73  A    between atoms: _166  and  _167
REMARK   74  A    between atoms: _169  and  _171
REMARK   75  A    between atoms: _171  and  _172
REMARK   76  A    between atoms: _171  and  _174
REMARK   77  A    between atoms: _174  and  _175
REMARK   78  A    between atoms: _181  and  _183
REMARK   79  A    between atoms: _183  and  _184
REMARK   80  A    between atoms: _183  and  _186
REMARK   81  A    between atoms: _186  and  _187
REMARK   82  A    between atoms: _190  and  _192
REMARK   83  A    between atoms: _192  and  _193
REMARK   84  A    between atoms: _192  and  _195
REMARK   85  A    between atoms: _198  and  _200
REMARK   86  A    between atoms: _200  and  _201
REMARK   87  A    between atoms: _200  and  _203
REMARK   88  A    between atoms: _203  and  _204
REMARK   89  A    between atoms: _207  and  _209
REMARK   90  A    between atoms: _209  and  _210
REMARK   91  A    between atoms: _209  and  _212
REMARK   92  A    between atoms: _212  and  _213
REMARK   93  A    between atoms: _217  and  _218
REMARK   94  A    between atoms: _223  and  _225
REMARK   95  A    between atoms: _225  and  _226
REMARK   96  A    between atoms: _225  and  _228
REMARK   97  A    between atoms: _231  and  _233
REMARK   98  A    between atoms: _233  and  _234
REMARK   99  A    between atoms: _233  and  _236
REMARK  100  A    between atoms: _236  and  _237
REMARK  101  A    between atoms: _242  and  _244
REMARK  102  A    between atoms: _244  and  _245
REMARK  103  A    between atoms: _244  and  _247
REMARK  104  A    between atoms: _247  and  _248
REMARK  105  A    between atoms: _251  and  _253
REMARK  106  A    between atoms: _253  and  _254
REMARK  107  A    between atoms: _253  and  _256
REMARK  108  A    between atoms: _256  and  _257
REMARK  109  A    between atoms: _260  and  _262
REMARK  110  A    between atoms: _262  and  _263
REMARK  111  A    between atoms: _265  and  _267
REMARK  112  A    between atoms: _267  and  _268
REMARK  113  A    between atoms: _267  and  _270
REMARK  114  A    between atoms: _270  and  _271
REMARK  115  A    between atoms: _271  and  _272
REMARK  116  A    between atoms: _272  and  _273
REMARK  117  A    between atoms: _282  and  _284
REMARK  118  A    between atoms: _284  and  _285
REMARK  119  A    between atoms: _284  and  _287
REMARK  120  A    between atoms: _287  and  _288
REMARK  121  A    between atoms: _293  and  _295
REMARK  122  A    between atoms: _295  and  _296
REMARK  123  A    between atoms: _295  and  _298
REMARK  124  A    between atoms: _298  and  _299
REMARK  125  A    between atoms: _299  and  _300
REMARK  126  A    between atoms: _300  and  _301
REMARK  127  A    between atoms: _310  and  _312
REMARK  128  A    between atoms: _312  and  _313
REMARK  129  A    between atoms: _312  and  _315
REMARK  130  A    between atoms: _315  and  _316
REMARK  131  A    between atoms: _319  and  _321
REMARK  132  A    between atoms: _321  and  _322
REMARK  133  A    between atoms: _321  and  _324
REMARK  134  A    between atoms: _324  and  _325
REMARK  135  A    between atoms: _328  and  _330
REMARK  136  A    between atoms: _330  and  _331
REMARK  137  A    between atoms: _330  and  _333
REMARK  138  A    between atoms: _333  and  _334
REMARK  139  A    between atoms: _337  and  _339
REMARK  140  A    between atoms: _339  and  _340
REMARK  141  A    between atoms: _339  and  _342
REMARK  142  A    between atoms: _342  and  _343
REMARK  143  A    between atoms: _346  and  _348
REMARK  144  A    between atoms: _348  and  _349
REMARK  145  A    between atoms: _348  and  _351
REMARK  146  A    between atoms: _351  and  _352
REMARK  147  A    between atoms: _355  and  _357
REMARK  148  A    between atoms: _357  and  _358
REMARK  149  A    between atoms: _360  and  _362
REMARK  150  A    between atoms: _362  and  _363
REMARK  151  A    between atoms: _366  and  _368
REMARK  152  A    between atoms: _368  and  _369
REMARK  153  A    between atoms: _368  and  _371
REMARK  154  A    between atoms: _371  and  _372
REMARK  155  A    between atoms: _375  and  _377
REMARK  156  A    between atoms: _377  and  _378
REMARK  157  A    between atoms: _377  and  _380
REMARK  158  A    between atoms: _380  and  _381
REMARK  159  A    between atoms: _384  and  _386
REMARK  160  A    between atoms: _386  and  _387
REMARK  161  A    between atoms: _386  and  _389
REMARK  162  A    between atoms: _389  and  _390
REMARK  163  A    between atoms: _393  and  _395
REMARK  164  A    between atoms: _395  and  _396
REMARK  165  A    between atoms: _395  and  _398
REMARK  166  A    between atoms: _401  and  _403
REMARK  167  A    between atoms: _403  and  _404
REMARK  168  A    between atoms: _403  and  _406
REMARK  169  A    between atoms: _406  and  _407
REMARK  170  A    between atoms: _410  and  _412
REMARK  171  A    between atoms: _412  and  _413
REMARK  172  A    between atoms: _412  and  _415
REMARK  173  A    between atoms: _415  and  _416
REMARK  174  A    between atoms: _416  and  _417
REMARK  175  A    between atoms: _417  and  _418
REMARK  176  A    between atoms: _418  and  _419
REMARK  177  A    between atoms: _423  and  _425
REMARK  178  A    between atoms: _425  and  _426
REMARK  179  A    between atoms: _425  and  _428
REMARK  180  A    between atoms: _428  and  _429
REMARK  181  A    between atoms: _429  and  _430
REMARK  182  A    between atoms: _432  and  _434
REMARK  183  A    between atoms: _434  and  _435
REMARK  184  A    between atoms: _434  and  _437
REMARK  185  A    between atoms: _437  and  _438
REMARK  186  A    between atoms: _441  and  _443
REMARK  187  A    between atoms: _443  and  _444
REMARK  188  A    between atoms: _446  and  _448
REMARK  189  A    between atoms: _448  and  _449
REMARK  190  A    between atoms: _451  and  _453
REMARK  191  A    between atoms: _453  and  _454
REMARK  192  A    between atoms: _453  and  _456
REMARK  193  A    between atoms: _456  and  _457
REMARK  194  A    between atoms: _460  and  _462
REMARK  195  A    between atoms: _462  and  _463
REMARK  196  A    between atoms: _465  and  _467
REMARK  197  A    between atoms: _467  and  _468
REMARK  198  A    between atoms: _470  and  _472
REMARK  199  A    between atoms: _472  and  _473
REMARK  200  A    between atoms: _472  and  _475
REMARK  201  A    between atoms: _475  and  _476
REMARK  202  A    between atoms: _482  and  _484
REMARK  203  A    between atoms: _484  and  _485
REMARK  204  A    between atoms: _484  and  _487
REMARK  205  A    between atoms: _487  and  _488
REMARK  206  A    between atoms: _491  and  _493
REMARK  207  A    between atoms: _493  and  _494
REMARK  208  A    between atoms: _493  and  _496
REMARK  209  A    between atoms: _499  and  _501
REMARK  210  A    between atoms: _501  and  _502
REMARK  211  A    between atoms: _501  and  _504
REMARK  212  A    between atoms: _504  and  _505
REMARK  213  A    between atoms: _508  and  _510
REMARK  214  A    between atoms: _510  and  _511
REMARK  215  A    between atoms: _510  and  _513
REMARK  216  A    between atoms: _513  and  _514
REMARK  217  A    between atoms: _518  and  _519
REMARK  218  A    between atoms: _524  and  _526
REMARK  219  A    between atoms: _526  and  _527
REMARK  220  A    between atoms: _526  and  _529
REMARK  221  A    between atoms: _532  and  _534
REMARK  222  A    between atoms: _534  and  _535
REMARK  223  A    between atoms: _534  and  _537
REMARK  224  A    between atoms: _537  and  _538
REMARK  225  A    between atoms: _543  and  _545
REMARK  226  A    between atoms: _545  and  _546
REMARK  227  A    between atoms: _545  and  _548
REMARK  228  A    between atoms: _548  and  _549
REMARK  229  A    between atoms: _552  and  _554
REMARK  230  A    between atoms: _554  and  _555
REMARK  231  A    between atoms: _554  and  _557
REMARK  232  A    between atoms: _557  and  _558
REMARK  233  A    between atoms: _561  and  _563
REMARK  234  A    between atoms: _563  and  _564
REMARK  235  A    between atoms: _566  and  _568
REMARK  236  A    between atoms: _568  and  _569
REMARK  237  A    between atoms: _568  and  _571
REMARK  238  A    between atoms: _571  and  _572
REMARK  239  A    between atoms: _572  and  _573
REMARK  240  A    between atoms: _573  and  _574
REMARK  241  A    between atoms: _583  and  _585
REMARK  242  A    between atoms: _585  and  _586
REMARK  243  A    between atoms: _585  and  _588
REMARK  244  A    between atoms: _588  and  _589
REMARK                            x       y       z     vdW  Elec       q    Type
REMARK                         _______ _______ _______ _____ _____    ______ ____
ROOT
ATOM      1  O   HOH     1       6.931  16.034   3.400  0.00  0.00    +0.000 OA
ENDROOT
TORSDOF 0
REMARK  Name = ../refined-set-2016/1d4j/1d4j_pocket.pdb
REMARK  244 active torsions:
REMARK  status: ('A' for Active; 'I' for Inactive)
REMARK    1  A    between atoms: _1  and  _3
REMARK    2  A    between atoms: _3  and  _4
REMARK    3  A    between atoms: _3  and  _6
REMARK    4  A    between atoms: _6  and  _7
REMARK    5  A    between atoms: _7  and  _8
REMARK    6  A    between atoms: _8  and  _9
REMARK    7  A    between atoms: _18  and  _20
REMARK    8  A    between atoms: _20  and  _21
REMARK    9  A    between atoms: _20  and  _23
REMARK   10  A    between atoms: _23  and  _24
REMARK   11  A    between atoms: _27  and  _29
REMARK   12  A    between atoms: _29  and  _30
REMARK   13  A    between atoms: _29  and  _32
REMARK   14  A    between atoms: _32  and  _33
REMARK   15  A    between atoms: _36  and  _38
REMARK   16  A    between atoms: _38  and  _39
REMARK   17  A    between atoms: _38  and  _41
REMARK   18  A    between atoms: _41  and  _42
REMARK   19  A    between atoms: _45  and  _47
REMARK   20  A    between atoms: _47  and  _48
REMARK   21  A    between atoms: _47  and  _50
REMARK   22  A    between atoms: _50  and  _51
REMARK   23  A    between atoms: _54  and  _56
REMARK   24  A    between atoms: _56  and  _57
REMARK   25  A    between atoms: _56  and  _59
REMARK   26  A    between atoms: _59  and  _60
REMARK   27  A    between atoms: _63  and  _65
REMARK   28  A    between atoms: _65  and  _66
REMARK   29  A    between atoms: _68  and  _70
REMARK   30  A    between atoms: _70  and  _71
REMARK   31  A    between atoms: _74  and  _76
REMARK   32  A    between atoms: _76  and  _77
REMARK   33  A    between atoms: _76  and  _79
REMARK   34  A    between atoms: _79  and  _80
REMARK   35  A    between atoms: _83  and  _85
REMARK   36  A    between atoms: _85  and  _86
REMARK   37  A    between atoms: _85  and  _88
REMARK   38  A    between atoms: _88  and  _89
REMARK   39  A    between atoms: _92  and  _94
REMARK   40  A    between atoms: _94  and  _95
REMARK   41  A    between atoms: _94  and  _97
REMARK   42  A    between atoms: _97  and  _98
REMARK   43  A    between atoms: _101  and  _103
REMARK   44  A    between atoms: _103  and  _104
REMARK   45  A    between atoms: _103  and  _106
REMARK   46  A    between atoms: _109  and  _111
REMARK   47  A    between atoms: _111  and  _112
REMARK   48  A    between atoms: _111  and  _114
REMARK   49  A    between atoms: _114  and  _115
REMARK   50  A    between atoms: _115  and  _116
REMARK   51  A    between atoms: _116  and  _117
REMARK   52  A    between atoms: _117  and  _118
REMARK   53  A    between atoms: _122  and  _124
REMARK   54  A    between atoms: _124  and  _125
REMARK   55  A    between atoms: _124  and  _127
REMARK   56  A    between atoms: _127  and  _128
REMARK   57  A    between atoms: _128  and  _129
REMARK   58  A    between atoms: _131  and  _133
REMARK   59  A    between atoms: _133  and  _134
REMARK   60  A    between atoms: _133  and  _136
REMARK   61  A    between atoms: _136  and  _137
REMARK   62  A    between atoms: _140  and  _142
REMARK   63  A    between atoms: _142  and  _143
REMARK   64  A    between atoms: _145  and  _147
REMARK   65  A    between atoms: _147  and  _148
REMARK   66  A    between atoms: _150  and  _152
REMARK   67  A    between atoms: _152  and  _153
REMARK   68  A    between atoms: _152  and  _155
REMARK   69  A    between atoms: _155  and  _156
REMARK   70  A    between atoms: _159  and  _161
REMARK   71  A    between atoms: _161  and  _162
REMARK   72  A    between atoms: _164  and  _166
REMARK   73  A    between atoms: _166  and  _167
REMARK   74  A    between atoms: _169  and  _171
REMARK   75  A    between atoms: _171  and  _172
REMARK   76  A    between atoms: _171  and  _174
REMARK   77  A    between atoms: _174  and  _175
REMARK   78  A    between atoms: _181  and  _183
REMARK   79  A    between atoms: _183  and  _184
REMARK   80  A    between atoms: _183  and  _186
REMARK   81  A    between atoms: _186  and  _187
REMARK   82  A    between atoms: _190  and  _192
REMARK   83  A    between atoms: _192  and  _193
REMARK   84  A    between atoms: _192  and  _195
REMARK   85  A    between atoms: _198  and  _200
REMARK   86  A    between atoms: _200  and  _201
REMARK   87  A    between atoms: _200  and  _203
REMARK   88  A    between atoms: _203  and  _204
REMARK   89  A    between atoms: _207  and  _209
REMARK   90  A    between atoms: _209  and  _210
REMARK   91  A    between atoms: _209  and  _212
REMARK   92  A    between atoms: _212  and  _213
REMARK   93  A    between atoms: _217  and  _218
REMARK   94  A    between atoms: _223  and  _225
REMARK   95  A    between atoms: _225  and  _226
REMARK   96  A    between atoms: _225  and  _228
REMARK   97  A    between atoms: _231  and  _233
REMARK   98  A    between atoms: _233  and  _234
REMARK   99  A    between atoms: _233  and  _236
REMARK  100  A    between atoms: _236  and  _237
REMARK  101  A    between atoms: _242  and  _244
REMARK  102  A    between atoms: _244  and  _245
REMARK  103  A    between atoms: _244  and  _247
REMARK  104  A    between atoms: _247  and  _248
REMARK  105  A    between atoms: _251  and  _253
REMARK  106  A    between atoms: _253  and  _254
REMARK  107  A    between atoms: _253  and  _256
REMARK  108  A    between atoms: _256  and  _257
REMARK  109  A    between atoms: _260  and  _262
REMARK  110  A    between atoms: _262  and  _263
REMARK  111  A    between atoms: _265  and  _267
REMARK  112  A    between atoms: _267  and  _268
REMARK  113  A    between atoms: _267  and  _270
REMARK  114  A    between atoms: _270  and  _271
REMARK  115  A    between atoms: _271  and  _272
REMARK  116  A    between atoms: _272  and  _273
REMARK  117  A    between atoms: _282  and  _284
REMARK  118  A    between atoms: _284  and  _285
REMARK  119  A    between atoms: _284  and  _287
REMARK  120  A    between atoms: _287  and  _288
REMARK  121  A    between atoms: _293  and  _295
REMARK  122  A    between atoms: _295  and  _296
REMARK  123  A    between atoms: _295  and  _298
REMARK  124  A    between atoms: _298  and  _299
REMARK  125  A    between atoms: _299  and  _300
REMARK  126  A    between atoms: _300  and  _301
REMARK  127  A    between atoms: _310  and  _312
REMARK  128  A    between atoms: _312  and  _313
REMARK  129  A    between atoms: _312  and  _315
REMARK  130  A    between atoms: _315  and  _316
REMARK  131  A    between atoms: _319  and  _321
REMARK  132  A    between atoms: _321  and  _322
REMARK  133  A    between atoms: _321  and  _324
REMARK  134  A    between atoms: _324  and  _325
REMARK  135  A    between atoms: _328  and  _330
REMARK  136  A    between atoms: _330  and  _331
REMARK  137  A    between atoms: _330  and  _333
REMARK  138  A    between atoms: _333  and  _334
REMARK  139  A    between atoms: _337  and  _339
REMARK  140  A    between atoms: _339  and  _340
REMARK  141  A    between atoms: _339  and  _342
REMARK  142  A    between atoms: _342  and  _343
REMARK  143  A    between atoms: _346  and  _348
REMARK  144  A    between atoms: _348  and  _349
REMARK  145  A    between atoms: _348  and  _351
REMARK  146  A    between atoms: _351  and  _352
REMARK  147  A    between atoms: _355  and  _357
REMARK  148  A    between atoms: _357  and  _358
REMARK  149  A    between atoms: _360  and  _362
REMARK  150  A    between atoms: _362  and  _363
REMARK  151  A    between atoms: _366  and  _368
REMARK  152  A    between atoms: _368  and  _369
REMARK  153  A    between atoms: _368  and  _371
REMARK  154  A    between atoms: _371  and  _372
REMARK  155  A    between atoms: _375  and  _377
REMARK  156  A    between atoms: _377  and  _378
REMARK  157  A    between atoms: _377  and  _380
REMARK  158  A    between atoms: _380  and  _381
REMARK  159  A    between atoms: _384  and  _386
REMARK  160  A    between atoms: _386  and  _387
REMARK  161  A    between atoms: _386  and  _389
REMARK  162  A    between atoms: _389  and  _390
REMARK  163  A    between atoms: _393  and  _395
REMARK  164  A    between atoms: _395  and  _396
REMARK  165  A    between atoms: _395  and  _398
REMARK  166  A    between atoms: _401  and  _403
REMARK  167  A    between atoms: _403  and  _404
REMARK  168  A    between atoms: _403  and  _406
REMARK  169  A    between atoms: _406  and  _407
REMARK  170  A    between atoms: _410  and  _412
REMARK  171  A    between atoms: _412  and  _413
REMARK  172  A    between atoms: _412  and  _415
REMARK  173  A    between atoms: _415  and  _416
REMARK  174  A    between atoms: _416  and  _417
REMARK  175  A    between atoms: _417  and  _418
REMARK  176  A    between atoms: _418  and  _419
REMARK  177  A    between atoms: _423  and  _425
REMARK  178  A    between atoms: _425  and  _426
REMARK  179  A    between atoms: _425  and  _428
REMARK  180  A    between atoms: _428  and  _429
REMARK  181  A    between atoms: _429  and  _430
REMARK  182  A    between atoms: _432  and  _434
REMARK  183  A    between atoms: _434  and  _435
REMARK  184  A    between atoms: _434  and  _437
REMARK  185  A    between atoms: _437  and  _438
REMARK  186  A    between atoms: _441  and  _443
REMARK  187  A    between atoms: _443  and  _444
REMARK  188  A    between atoms: _446  and  _448
REMARK  189  A    between atoms: _448  and  _449
REMARK  190  A    between atoms: _451  and  _453
REMARK  191  A    between atoms: _453  and  _454
REMARK  192  A    between atoms: _453  and  _456
REMARK  193  A    between atoms: _456  and  _457
REMARK  194  A    between atoms: _460  and  _462
REMARK  195  A    between atoms: _462  and  _463
REMARK  196  A    between atoms: _465  and  _467
REMARK  197  A    between atoms: _467  and  _468
REMARK  198  A    between atoms: _470  and  _472
REMARK  199  A    between atoms: _472  and  _473
REMARK  200  A    between atoms: _472  and  _475
REMARK  201  A    between atoms: _475  and  _476
REMARK  202  A    between atoms: _482  and  _484
REMARK  203  A    between atoms: _484  and  _485
REMARK  204  A    between atoms: _484  and  _487
REMARK  205  A    between atoms: _487  and  _488
REMARK  206  A    between atoms: _491  and  _493
REMARK  207  A    between atoms: _493  and  _494
REMARK  208  A    between atoms: _493  and  _496
REMARK  209  A    between atoms: _499  and  _501
REMARK  210  A    between atoms: _501  and  _502
REMARK  211  A    between atoms: _501  and  _504
REMARK  212  A    between atoms: _504  and  _505
REMARK  213  A    between atoms: _508  and  _510
REMARK  214  A    between atoms: _510  and  _511
REMARK  215  A    between atoms: _510  and  _513
REMARK  216  A    between atoms: _513  and  _514
REMARK  217  A    between atoms: _518  and  _519
REMARK  218  A    between atoms: _524  and  _526
REMARK  219  A    between atoms: _526  and  _527
REMARK  220  A    between atoms: _526  and  _529
REMARK  221  A    between atoms: _532  and  _534
REMARK  222  A    between atoms: _534  and  _535
REMARK  223  A    between atoms: _534  and  _537
REMARK  224  A    between atoms: _537  and  _538
REMARK  225  A    between atoms: _543  and  _545
REMARK  226  A    between atoms: _545  and  _546
REMARK  227  A    between atoms: _545  and  _548
REMARK  228  A    between atoms: _548  and  _549
REMARK  229  A    between atoms: _552  and  _554
REMARK  230  A    between atoms: _554  and  _555
REMARK  231  A    between atoms: _554  and  _557
REMARK  232  A    between atoms: _557  and  _558
REMARK  233  A    between atoms: _561  and  _563
REMARK  234  A    between atoms: _563  and  _564
REMARK  235  A    between atoms: _566  and  _568
REMARK  236  A    between atoms: _568  and  _569
REMARK  237  A    between atoms: _568  and  _571
REMARK  238  A    between atoms: _571  and  _572
REMARK  239  A    between atoms: _572  and  _573
REMARK  240  A    between atoms: _573  and  _574
REMARK  241  A    between atoms: _583  and  _585
REMARK  242  A    between atoms: _585  and  _586
REMARK  243  A    between atoms: _585  and  _588
REMARK  244  A    between atoms: _588  and  _589
REMARK                            x       y       z     vdW  Elec       q    Type
REMARK                         _______ _______ _______ _____ _____    ______ ____
ROOT
ATOM      1  O   HOH     1      18.254  16.584   8.801  0.00  0.00    +0.000 OA
ENDROOT
TORSDOF 0
REMARK  Name = ../refined-set-2016/1d4j/1d4j_pocket.pdb
REMARK  244 active torsions:
REMARK  status: ('A' for Active; 'I' for Inactive)
REMARK    1  A    between atoms: _1  and  _3
REMARK    2  A    between atoms: _3  and  _4
REMARK    3  A    between atoms: _3  and  _6
REMARK    4  A    between atoms: _6  and  _7
REMARK    5  A    between atoms: _7  and  _8
REMARK    6  A    between atoms: _8  and  _9
REMARK    7  A    between atoms: _18  and  _20
REMARK    8  A    between atoms: _20  and  _21
REMARK    9  A    between atoms: _20  and  _23
REMARK   10  A    between atoms: _23  and  _24
REMARK   11  A    between atoms: _27  and  _29
REMARK   12  A    between atoms: _29  and  _30
REMARK   13  A    between atoms: _29  and  _32
REMARK   14  A    between atoms: _32  and  _33
REMARK   15  A    between atoms: _36  and  _38
REMARK   16  A    between atoms: _38  and  _39
REMARK   17  A    between atoms: _38  and  _41
REMARK   18  A    between atoms: _41  and  _42
REMARK   19  A    between atoms: _45  and  _47
REMARK   20  A    between atoms: _47  and  _48
REMARK   21  A    between atoms: _47  and  _50
REMARK   22  A    between atoms: _50  and  _51
REMARK   23  A    between atoms: _54  and  _56
REMARK   24  A    between atoms: _56  and  _57
REMARK   25  A    between atoms: _56  and  _59
REMARK   26  A    between atoms: _59  and  _60
REMARK   27  A    between atoms: _63  and  _65
REMARK   28  A    between atoms: _65  and  _66
REMARK   29  A    between atoms: _68  and  _70
REMARK   30  A    between atoms: _70  and  _71
REMARK   31  A    between atoms: _74  and  _76
REMARK   32  A    between atoms: _76  and  _77
REMARK   33  A    between atoms: _76  and  _79
REMARK   34  A    between atoms: _79  and  _80
REMARK   35  A    between atoms: _83  and  _85
REMARK   36  A    between atoms: _85  and  _86
REMARK   37  A    between atoms: _85  and  _88
REMARK   38  A    between atoms: _88  and  _89
REMARK   39  A    between atoms: _92  and  _94
REMARK   40  A    between atoms: _94  and  _95
REMARK   41  A    between atoms: _94  and  _97
REMARK   42  A    between atoms: _97  and  _98
REMARK   43  A    between atoms: _101  and  _103
REMARK   44  A    between atoms: _103  and  _104
REMARK   45  A    between atoms: _103  and  _106
REMARK   46  A    between atoms: _109  and  _111
REMARK   47  A    between atoms: _111  and  _112
REMARK   48  A    between atoms: _111  and  _114
REMARK   49  A    between atoms: _114  and  _115
REMARK   50  A    between atoms: _115  and  _116
REMARK   51  A    between atoms: _116  and  _117
REMARK   52  A    between atoms: _117  and  _118
REMARK   53  A    between atoms: _122  and  _124
REMARK   54  A    between atoms: _124  and  _125
REMARK   55  A    between atoms: _124  and  _127
REMARK   56  A    between atoms: _127  and  _128
REMARK   57  A    between atoms: _128  and  _129
REMARK   58  A    between atoms: _131  and  _133
REMARK   59  A    between atoms: _133  and  _134
REMARK   60  A    between atoms: _133  and  _136
REMARK   61  A    between atoms: _136  and  _137
REMARK   62  A    between atoms: _140  and  _142
REMARK   63  A    between atoms: _142  and  _143
REMARK   64  A    between atoms: _145  and  _147
REMARK   65  A    between atoms: _147  and  _148
REMARK   66  A    between atoms: _150  and  _152
REMARK   67  A    between atoms: _152  and  _153
REMARK   68  A    between atoms: _152  and  _155
REMARK   69  A    between atoms: _155  and  _156
REMARK   70  A    between atoms: _159  and  _161
REMARK   71  A    between atoms: _161  and  _162
REMARK   72  A    between atoms: _164  and  _166
REMARK   73  A    between atoms: _166  and  _167
REMARK   74  A    between atoms: _169  and  _171
REMARK   75  A    between atoms: _171  and  _172
REMARK   76  A    between atoms: _171  and  _174
REMARK   77  A    between atoms: _174  and  _175
REMARK   78  A    between atoms: _181  and  _183
REMARK   79  A    between atoms: _183  and  _184
REMARK   80  A    between atoms: _183  and  _186
REMARK   81  A    between atoms: _186  and  _187
REMARK   82  A    between atoms: _190  and  _192
REMARK   83  A    between atoms: _192  and  _193
REMARK   84  A    between atoms: _192  and  _195
REMARK   85  A    between atoms: _198  and  _200
REMARK   86  A    between atoms: _200  and  _201
REMARK   87  A    between atoms: _200  and  _203
REMARK   88  A    between atoms: _203  and  _204
REMARK   89  A    between atoms: _207  and  _209
REMARK   90  A    between atoms: _209  and  _210
REMARK   91  A    between atoms: _209  and  _212
REMARK   92  A    between atoms: _212  and  _213
REMARK   93  A    between atoms: _217  and  _218
REMARK   94  A    between atoms: _223  and  _225
REMARK   95  A    between atoms: _225  and  _226
REMARK   96  A    between atoms: _225  and  _228
REMARK   97  A    between atoms: _231  and  _233
REMARK   98  A    between atoms: _233  and  _234
REMARK   99  A    between atoms: _233  and  _236
REMARK  100  A    between atoms: _236  and  _237
REMARK  101  A    between atoms: _242  and  _244
REMARK  102  A    between atoms: _244  and  _245
REMARK  103  A    between atoms: _244  and  _247
REMARK  104  A    between atoms: _247  and  _248
REMARK  105  A    between atoms: _251  and  _253
REMARK  106  A    between atoms: _253  and  _254
REMARK  107  A    between atoms: _253  and  _256
REMARK  108  A    between atoms: _256  and  _257
REMARK  109  A    between atoms: _260  and  _262
REMARK  110  A    between atoms: _262  and  _263
REMARK  111  A    between atoms: _265  and  _267
REMARK  112  A    between atoms: _267  and  _268
REMARK  113  A    between atoms: _267  and  _270
REMARK  114  A    between atoms: _270  and  _271
REMARK  115  A    between atoms: _271  and  _272
REMARK  116  A    between atoms: _272  and  _273
REMARK  117  A    between atoms: _282  and  _284
REMARK  118  A    between atoms: _284  and  _285
REMARK  119  A    between atoms: _284  and  _287
REMARK  120  A    between atoms: _287  and  _288
REMARK  121  A    between atoms: _293  and  _295
REMARK  122  A    between atoms: _295  and  _296
REMARK  123  A    between atoms: _295  and  _298
REMARK  124  A    between atoms: _298  and  _299
REMARK  125  A    between atoms: _299  and  _300
REMARK  126  A    between atoms: _300  and  _301
REMARK  127  A    between atoms: _310  and  _312
REMARK  128  A    between atoms: _312  and  _313
REMARK  129  A    between atoms: _312  and  _315
REMARK  130  A    between atoms: _315  and  _316
REMARK  131  A    between atoms: _319  and  _321
REMARK  132  A    between atoms: _321  and  _322
REMARK  133  A    between atoms: _321  and  _324
REMARK  134  A    between atoms: _324  and  _325
REMARK  135  A    between atoms: _328  and  _330
REMARK  136  A    between atoms: _330  and  _331
REMARK  137  A    between atoms: _330  and  _333
REMARK  138  A    between atoms: _333  and  _334
REMARK  139  A    between atoms: _337  and  _339
REMARK  140  A    between atoms: _339  and  _340
REMARK  141  A    between atoms: _339  and  _342
REMARK  142  A    between atoms: _342  and  _343
REMARK  143  A    between atoms: _346  and  _348
REMARK  144  A    between atoms: _348  and  _349
REMARK  145  A    between atoms: _348  and  _351
REMARK  146  A    between atoms: _351  and  _352
REMARK  147  A    between atoms: _355  and  _357
REMARK  148  A    between atoms: _357  and  _358
REMARK  149  A    between atoms: _360  and  _362
REMARK  150  A    between atoms: _362  and  _363
REMARK  151  A    between atoms: _366  and  _368
REMARK  152  A    between atoms: _368  and  _369
REMARK  153  A    between atoms: _368  and  _371
REMARK  154  A    between atoms: _371  and  _372
REMARK  155  A    between atoms: _375  and  _377
REMARK  156  A    between atoms: _377  and  _378
REMARK  157  A    between atoms: _377  and  _380
REMARK  158  A    between atoms: _380  and  _381
REMARK  159  A    between atoms: _384  and  _386
REMARK  160  A    between atoms: _386  and  _387
REMARK  161  A    between atoms: _386  and  _389
REMARK  162  A    between atoms: _389  and  _390
REMARK  163  A    between atoms: _393  and  _395
REMARK  164  A    between atoms: _395  and  _396
REMARK  165  A    between atoms: _395  and  _398
REMARK  166  A    between atoms: _401  and  _403
REMARK  167  A    between atoms: _403  and  _404
REMARK  168  A    between atoms: _403  and  _406
REMARK  169  A    between atoms: _406  and  _407
REMARK  170  A    between atoms: _410  and  _412
REMARK  171  A    between atoms: _412  and  _413
REMARK  172  A    between atoms: _412  and  _415
REMARK  173  A    between atoms: _415  and  _416
REMARK  174  A    between atoms: _416  and  _417
REMARK  175  A    between atoms: _417  and  _418
REMARK  176  A    between atoms: _418  and  _419
REMARK  177  A    between atoms: _423  and  _425
REMARK  178  A    between atoms: _425  and  _426
REMARK  179  A    between atoms: _425  and  _428
REMARK  180  A    between atoms: _428  and  _429
REMARK  181  A    between atoms: _429  and  _430
REMARK  182  A    between atoms: _432  and  _434
REMARK  183  A    between atoms: _434  and  _435
REMARK  184  A    between atoms: _434  and  _437
REMARK  185  A    between atoms: _437  and  _438
REMARK  186  A    between atoms: _441  and  _443
REMARK  187  A    between atoms: _443  and  _444
REMARK  188  A    between atoms: _446  and  _448
REMARK  189  A    between atoms: _448  and  _449
REMARK  190  A    between atoms: _451  and  _453
REMARK  191  A    between atoms: _453  and  _454
REMARK  192  A    between atoms: _453  and  _456
REMARK  193  A    between atoms: _456  and  _457
REMARK  194  A    between atoms: _460  and  _462
REMARK  195  A    between atoms: _462  and  _463
REMARK  196  A    between atoms: _465  and  _467
REMARK  197  A    between atoms: _467  and  _468
REMARK  198  A    between atoms: _470  and  _472
REMARK  199  A    between atoms: _472  and  _473
REMARK  200  A    between atoms: _472  and  _475
REMARK  201  A    between atoms: _475  and  _476
REMARK  202  A    between atoms: _482  and  _484
REMARK  203  A    between atoms: _484  and  _485
REMARK  204  A    between atoms: _484  and  _487
REMARK  205  A    between atoms: _487  and  _488
REMARK  206  A    between atoms: _491  and  _493
REMARK  207  A    between atoms: _493  and  _494
REMARK  208  A    between atoms: _493  and  _496
REMARK  209  A    between atoms: _499  and  _501
REMARK  210  A    between atoms: _501  and  _502
REMARK  211  A    between atoms: _501  and  _504
REMARK  212  A    between atoms: _504  and  _505
REMARK  213  A    between atoms: _508  and  _510
REMARK  214  A    between atoms: _510  and  _511
REMARK  215  A    between atoms: _510  and  _513
REMARK  216  A    between atoms: _513  and  _514
REMARK  217  A    between atoms: _518  and  _519
REMARK  218  A    between atoms: _524  and  _526
REMARK  219  A    between atoms: _526  and  _527
REMARK  220  A    between atoms: _526  and  _529
REMARK  221  A    between atoms: _532  and  _534
REMARK  222  A    between atoms: _534  and  _535
REMARK  223  A    between atoms: _534  and  _537
REMARK  224  A    between atoms: _537  and  _538
REMARK  225  A    between atoms: _543  and  _545
REMARK  226  A    between atoms: _545  and  _546
REMARK  227  A    between atoms: _545  and  _548
REMARK  228  A    between atoms: _548  and  _549
REMARK  229  A    between atoms: _552  and  _554
REMARK  230  A    between atoms: _554  and  _555
REMARK  231  A    between atoms: _554  and  _557
REMARK  232  A    between atoms: _557  and  _558
REMARK  233  A    between atoms: _561  and  _563
REMARK  234  A    between atoms: _563  and  _564
REMARK  235  A    between atoms: _566  and  _568
REMARK  236  A    between atoms: _568  and  _569
REMARK  237  A    between atoms: _568  and  _571
REMARK  238  A    between atoms: _571  and  _572
REMARK  239  A    between atoms: _572  and  _573
REMARK  240  A    between atoms: _573  and  _574
REMARK  241  A    between atoms: _583  and  _585
REMARK  242  A    between atoms: _585  and  _586
REMARK  243  A    between atoms: _585  and  _588
REMARK  244  A    between atoms: _588  and  _589
REMARK                            x       y       z     vdW  Elec       q    Type
REMARK                         _______ _______ _______ _____ _____    ______ ____
ROOT
ATOM      1  O   HOH     1      22.014  15.921   4.966  0.00  0.00    +0.000 OA
ENDROOT
TORSDOF 0
REMARK  Name = ../refined-set-2016/1d4j/1d4j_pocket.pdb
REMARK  244 active torsions:
REMARK  status: ('A' for Active; 'I' for Inactive)
REMARK    1  A    between atoms: _1  and  _3
REMARK    2  A    between atoms: _3  and  _4
REMARK    3  A    between atoms: _3  and  _6
REMARK    4  A    between atoms: _6  and  _7
REMARK    5  A    between atoms: _7  and  _8
REMARK    6  A    between atoms: _8  and  _9
REMARK    7  A    between atoms: _18  and  _20
REMARK    8  A    between atoms: _20  and  _21
REMARK    9  A    between atoms: _20  and  _23
REMARK   10  A    between atoms: _23  and  _24
REMARK   11  A    between atoms: _27  and  _29
REMARK   12  A    between atoms: _29  and  _30
REMARK   13  A    between atoms: _29  and  _32
REMARK   14  A    between atoms: _32  and  _33
REMARK   15  A    between atoms: _36  and  _38
REMARK   16  A    between atoms: _38  and  _39
REMARK   17  A    between atoms: _38  and  _41
REMARK   18  A    between atoms: _41  and  _42
REMARK   19  A    between atoms: _45  and  _47
REMARK   20  A    between atoms: _47  and  _48
REMARK   21  A    between atoms: _47  and  _50
REMARK   22  A    between atoms: _50  and  _51
REMARK   23  A    between atoms: _54  and  _56
REMARK   24  A    between atoms: _56  and  _57
REMARK   25  A    between atoms: _56  and  _59
REMARK   26  A    between atoms: _59  and  _60
REMARK   27  A    between atoms: _63  and  _65
REMARK   28  A    between atoms: _65  and  _66
REMARK   29  A    between atoms: _68  and  _70
REMARK   30  A    between atoms: _70  and  _71
REMARK   31  A    between atoms: _74  and  _76
REMARK   32  A    between atoms: _76  and  _77
REMARK   33  A    between atoms: _76  and  _79
REMARK   34  A    between atoms: _79  and  _80
REMARK   35  A    between atoms: _83  and  _85
REMARK   36  A    between atoms: _85  and  _86
REMARK   37  A    between atoms: _85  and  _88
REMARK   38  A    between atoms: _88  and  _89
REMARK   39  A    between atoms: _92  and  _94
REMARK   40  A    between atoms: _94  and  _95
REMARK   41  A    between atoms: _94  and  _97
REMARK   42  A    between atoms: _97  and  _98
REMARK   43  A    between atoms: _101  and  _103
REMARK   44  A    between atoms: _103  and  _104
REMARK   45  A    between atoms: _103  and  _106
REMARK   46  A    between atoms: _109  and  _111
REMARK   47  A    between atoms: _111  and  _112
REMARK   48  A    between atoms: _111  and  _114
REMARK   49  A    between atoms: _114  and  _115
REMARK   50  A    between atoms: _115  and  _116
REMARK   51  A    between atoms: _116  and  _117
REMARK   52  A    between atoms: _117  and  _118
REMARK   53  A    between atoms: _122  and  _124
REMARK   54  A    between atoms: _124  and  _125
REMARK   55  A    between atoms: _124  and  _127
REMARK   56  A    between atoms: _127  and  _128
REMARK   57  A    between atoms: _128  and  _129
REMARK   58  A    between atoms: _131  and  _133
REMARK   59  A    between atoms: _133  and  _134
REMARK   60  A    between atoms: _133  and  _136
REMARK   61  A    between atoms: _136  and  _137
REMARK   62  A    between atoms: _140  and  _142
REMARK   63  A    between atoms: _142  and  _143
REMARK   64  A    between atoms: _145  and  _147
REMARK   65  A    between atoms: _147  and  _148
REMARK   66  A    between atoms: _150  and  _152
REMARK   67  A    between atoms: _152  and  _153
REMARK   68  A    between atoms: _152  and  _155
REMARK   69  A    between atoms: _155  and  _156
REMARK   70  A    between atoms: _159  and  _161
REMARK   71  A    between atoms: _161  and  _162
REMARK   72  A    between atoms: _164  and  _166
REMARK   73  A    between atoms: _166  and  _167
REMARK   74  A    between atoms: _169  and  _171
REMARK   75  A    between atoms: _171  and  _172
REMARK   76  A    between atoms: _171  and  _174
REMARK   77  A    between atoms: _174  and  _175
REMARK   78  A    between atoms: _181  and  _183
REMARK   79  A    between atoms: _183  and  _184
REMARK   80  A    between atoms: _183  and  _186
REMARK   81  A    between atoms: _186  and  _187
REMARK   82  A    between atoms: _190  and  _192
REMARK   83  A    between atoms: _192  and  _193
REMARK   84  A    between atoms: _192  and  _195
REMARK   85  A    between atoms: _198  and  _200
REMARK   86  A    between atoms: _200  and  _201
REMARK   87  A    between atoms: _200  and  _203
REMARK   88  A    between atoms: _203  and  _204
REMARK   89  A    between atoms: _207  and  _209
REMARK   90  A    between atoms: _209  and  _210
REMARK   91  A    between atoms: _209  and  _212
REMARK   92  A    between atoms: _212  and  _213
REMARK   93  A    between atoms: _217  and  _218
REMARK   94  A    between atoms: _223  and  _225
REMARK   95  A    between atoms: _225  and  _226
REMARK   96  A    between atoms: _225  and  _228
REMARK   97  A    between atoms: _231  and  _233
REMARK   98  A    between atoms: _233  and  _234
REMARK   99  A    between atoms: _233  and  _236
REMARK  100  A    between atoms: _236  and  _237
REMARK  101  A    between atoms: _242  and  _244
REMARK  102  A    between atoms: _244  and  _245
REMARK  103  A    between atoms: _244  and  _247
REMARK  104  A    between atoms: _247  and  _248
REMARK  105  A    between atoms: _251  and  _253
REMARK  106  A    between atoms: _253  and  _254
REMARK  107  A    between atoms: _253  and  _256
REMARK  108  A    between atoms: _256  and  _257
REMARK  109  A    between atoms: _260  and  _262
REMARK  110  A    between atoms: _262  and  _263
REMARK  111  A    between atoms: _265  and  _267
REMARK  112  A    between atoms: _267  and  _268
REMARK  113  A    between atoms: _267  and  _270
REMARK  114  A    between atoms: _270  and  _271
REMARK  115  A    between atoms: _271  and  _272
REMARK  116  A    between atoms: _272  and  _273
REMARK  117  A    between atoms: _282  and  _284
REMARK  118  A    between atoms: _284  and  _285
REMARK  119  A    between atoms: _284  and  _287
REMARK  120  A    between atoms: _287  and  _288
REMARK  121  A    between atoms: _293  and  _295
REMARK  122  A    between atoms: _295  and  _296
REMARK  123  A    between atoms: _295  and  _298
REMARK  124  A    between atoms: _298  and  _299
REMARK  125  A    between atoms: _299  and  _300
REMARK  126  A    between atoms: _300  and  _301
REMARK  127  A    between atoms: _310  and  _312
REMARK  128  A    between atoms: _312  and  _313
REMARK  129  A    between atoms: _312  and  _315
REMARK  130  A    between atoms: _315  and  _316
REMARK  131  A    between atoms: _319  and  _321
REMARK  132  A    between atoms: _321  and  _322
REMARK  133  A    between atoms: _321  and  _324
REMARK  134  A    between atoms: _324  and  _325
REMARK  135  A    between atoms: _328  and  _330
REMARK  136  A    between atoms: _330  and  _331
REMARK  137  A    between atoms: _330  and  _333
REMARK  138  A    between atoms: _333  and  _334
REMARK  139  A    between atoms: _337  and  _339
REMARK  140  A    between atoms: _339  and  _340
REMARK  141  A    between atoms: _339  and  _342
REMARK  142  A    between atoms: _342  and  _343
REMARK  143  A    between atoms: _346  and  _348
REMARK  144  A    between atoms: _348  and  _349
REMARK  145  A    between atoms: _348  and  _351
REMARK  146  A    between atoms: _351  and  _352
REMARK  147  A    between atoms: _355  and  _357
REMARK  148  A    between atoms: _357  and  _358
REMARK  149  A    between atoms: _360  and  _362
REMARK  150  A    between atoms: _362  and  _363
REMARK  151  A    between atoms: _366  and  _368
REMARK  152  A    between atoms: _368  and  _369
REMARK  153  A    between atoms: _368  and  _371
REMARK  154  A    between atoms: _371  and  _372
REMARK  155  A    between atoms: _375  and  _377
REMARK  156  A    between atoms: _377  and  _378
REMARK  157  A    between atoms: _377  and  _380
REMARK  158  A    between atoms: _380  and  _381
REMARK  159  A    between atoms: _384  and  _386
REMARK  160  A    between atoms: _386  and  _387
REMARK  161  A    between atoms: _386  and  _389
REMARK  162  A    between atoms: _389  and  _390
REMARK  163  A    between atoms: _393  and  _395
REMARK  164  A    between atoms: _395  and  _396
REMARK  165  A    between atoms: _395  and  _398
REMARK  166  A    between atoms: _401  and  _403
REMARK  167  A    between atoms: _403  and  _404
REMARK  168  A    between atoms: _403  and  _406
REMARK  169  A    between atoms: _406  and  _407
REMARK  170  A    between atoms: _410  and  _412
REMARK  171  A    between atoms: _412  and  _413
REMARK  172  A    between atoms: _412  and  _415
REMARK  173  A    between atoms: _415  and  _416
REMARK  174  A    between atoms: _416  and  _417
REMARK  175  A    between atoms: _417  and  _418
REMARK  176  A    between atoms: _418  and  _419
REMARK  177  A    between atoms: _423  and  _425
REMARK  178  A    between atoms: _425  and  _426
REMARK  179  A    between atoms: _425  and  _428
REMARK  180  A    between atoms: _428  and  _429
REMARK  181  A    between atoms: _429  and  _430
REMARK  182  A    between atoms: _432  and  _434
REMARK  183  A    between atoms: _434  and  _435
REMARK  184  A    between atoms: _434  and  _437
REMARK  185  A    between atoms: _437  and  _438
REMARK  186  A    between atoms: _441  and  _443
REMARK  187  A    between atoms: _443  and  _444
REMARK  188  A    between atoms: _446  and  _448
REMARK  189  A    between atoms: _448  and  _449
REMARK  190  A    between atoms: _451  and  _453
REMARK  191  A    between atoms: _453  and  _454
REMARK  192  A    between atoms: _453  and  _456
REMARK  193  A    between atoms: _456  and  _457
REMARK  194  A    between atoms: _460  and  _462
REMARK  195  A    between atoms: _462  and  _463
REMARK  196  A    between atoms: _465  and  _467
REMARK  197  A    between atoms: _467  and  _468
REMARK  198  A    between atoms: _470  and  _472
REMARK  199  A    between atoms: _472  and  _473
REMARK  200  A    between atoms: _472  and  _475
REMARK  201  A    between atoms: _475  and  _476
REMARK  202  A    between atoms: _482  and  _484
REMARK  203  A    between atoms: _484  and  _485
REMARK  204  A    between atoms: _484  and  _487
REMARK  205  A    between atoms: _487  and  _488
REMARK  206  A    between atoms: _491  and  _493
REMARK  207  A    between atoms: _493  and  _494
REMARK  208  A    between atoms: _493  and  _496
REMARK  209  A    between atoms: _499  and  _501
REMARK  210  A    between atoms: _501  and  _502
REMARK  211  A    between atoms: _501  and  _504
REMARK  212  A    between atoms: _504  and  _505
REMARK  213  A    between atoms: _508  and  _510
REMARK  214  A    between atoms: _510  and  _511
REMARK  215  A    between atoms: _510  and  _513
REMARK  216  A    between atoms: _513  and  _514
REMARK  217  A    between atoms: _518  and  _519
REMARK  218  A    between atoms: _524  and  _526
REMARK  219  A    between atoms: _526  and  _527
REMARK  220  A    between atoms: _526  and  _529
REMARK  221  A    between atoms: _532  and  _534
REMARK  222  A    between atoms: _534  and  _535
REMARK  223  A    between atoms: _534  and  _537
REMARK  224  A    between atoms: _537  and  _538
REMARK  225  A    between atoms: _543  and  _545
REMARK  226  A    between atoms: _545  and  _546
REMARK  227  A    between atoms: _545  and  _548
REMARK  228  A    between atoms: _548  and  _549
REMARK  229  A    between atoms: _552  and  _554
REMARK  230  A    between atoms: _554  and  _555
REMARK  231  A    between atoms: _554  and  _557
REMARK  232  A    between atoms: _557  and  _558
REMARK  233  A    between atoms: _561  and  _563
REMARK  234  A    between atoms: _563  and  _564
REMARK  235  A    between atoms: _566  and  _568
REMARK  236  A    between atoms: _568  and  _569
REMARK  237  A    between atoms: _568  and  _571
REMARK  238  A    between atoms: _571  and  _572
REMARK  239  A    between atoms: _572  and  _573
REMARK  240  A    between atoms: _573  and  _574
REMARK  241  A    between atoms: _583  and  _585
REMARK  242  A    between atoms: _585  and  _586
REMARK  243  A    between atoms: _585  and  _588
REMARK  244  A    between atoms: _588  and  _589
REMARK                            x       y       z     vdW  Elec       q    Type
REMARK                         _______ _______ _______ _____ _____    ______ ____
ROOT
ATOM      1  O   HOH     1       6.195  26.543  -5.144  0.00  0.00    +0.000 OA
ENDROOT
TORSDOF 0
REMARK  Name = ../refined-set-2016/1d4j/1d4j_pocket.pdb
REMARK  244 active torsions:
REMARK  status: ('A' for Active; 'I' for Inactive)
REMARK    1  A    between atoms: _1  and  _3
REMARK    2  A    between atoms: _3  and  _4
REMARK    3  A    between atoms: _3  and  _6
REMARK    4  A    between atoms: _6  and  _7
REMARK    5  A    between atoms: _7  and  _8
REMARK    6  A    between atoms: _8  and  _9
REMARK    7  A    between atoms: _18  and  _20
REMARK    8  A    between atoms: _20  and  _21
REMARK    9  A    between atoms: _20  and  _23
REMARK   10  A    between atoms: _23  and  _24
REMARK   11  A    between atoms: _27  and  _29
REMARK   12  A    between atoms: _29  and  _30
REMARK   13  A    between atoms: _29  and  _32
REMARK   14  A    between atoms: _32  and  _33
REMARK   15  A    between atoms: _36  and  _38
REMARK   16  A    between atoms: _38  and  _39
REMARK   17  A    between atoms: _38  and  _41
REMARK   18  A    between atoms: _41  and  _42
REMARK   19  A    between atoms: _45  and  _47
REMARK   20  A    between atoms: _47  and  _48
REMARK   21  A    between atoms: _47  and  _50
REMARK   22  A    between atoms: _50  and  _51
REMARK   23  A    between atoms: _54  and  _56
REMARK   24  A    between atoms: _56  and  _57
REMARK   25  A    between atoms: _56  and  _59
REMARK   26  A    between atoms: _59  and  _60
REMARK   27  A    between atoms: _63  and  _65
REMARK   28  A    between atoms: _65  and  _66
REMARK   29  A    between atoms: _68  and  _70
REMARK   30  A    between atoms: _70  and  _71
REMARK   31  A    between atoms: _74  and  _76
REMARK   32  A    between atoms: _76  and  _77
REMARK   33  A    between atoms: _76  and  _79
REMARK   34  A    between atoms: _79  and  _80
REMARK   35  A    between atoms: _83  and  _85
REMARK   36  A    between atoms: _85  and  _86
REMARK   37  A    between atoms: _85  and  _88
REMARK   38  A    between atoms: _88  and  _89
REMARK   39  A    between atoms: _92  and  _94
REMARK   40  A    between atoms: _94  and  _95
REMARK   41  A    between atoms: _94  and  _97
REMARK   42  A    between atoms: _97  and  _98
REMARK   43  A    between atoms: _101  and  _103
REMARK   44  A    between atoms: _103  and  _104
REMARK   45  A    between atoms: _103  and  _106
REMARK   46  A    between atoms: _109  and  _111
REMARK   47  A    between atoms: _111  and  _112
REMARK   48  A    between atoms: _111  and  _114
REMARK   49  A    between atoms: _114  and  _115
REMARK   50  A    between atoms: _115  and  _116
REMARK   51  A    between atoms: _116  and  _117
REMARK   52  A    between atoms: _117  and  _118
REMARK   53  A    between atoms: _122  and  _124
REMARK   54  A    between atoms: _124  and  _125
REMARK   55  A    between atoms: _124  and  _127
REMARK   56  A    between atoms: _127  and  _128
REMARK   57  A    between atoms: _128  and  _129
REMARK   58  A    between atoms: _131  and  _133
REMARK   59  A    between atoms: _133  and  _134
REMARK   60  A    between atoms: _133  and  _136
REMARK   61  A    between atoms: _136  and  _137
REMARK   62  A    between atoms: _140  and  _142
REMARK   63  A    between atoms: _142  and  _143
REMARK   64  A    between atoms: _145  and  _147
REMARK   65  A    between atoms: _147  and  _148
REMARK   66  A    between atoms: _150  and  _152
REMARK   67  A    between atoms: _152  and  _153
REMARK   68  A    between atoms: _152  and  _155
REMARK   69  A    between atoms: _155  and  _156
REMARK   70  A    between atoms: _159  and  _161
REMARK   71  A    between atoms: _161  and  _162
REMARK   72  A    between atoms: _164  and  _166
REMARK   73  A    between atoms: _166  and  _167
REMARK   74  A    between atoms: _169  and  _171
REMARK   75  A    between atoms: _171  and  _172
REMARK   76  A    between atoms: _171  and  _174
REMARK   77  A    between atoms: _174  and  _175
REMARK   78  A    between atoms: _181  and  _183
REMARK   79  A    between atoms: _183  and  _184
REMARK   80  A    between atoms: _183  and  _186
REMARK   81  A    between atoms: _186  and  _187
REMARK   82  A    between atoms: _190  and  _192
REMARK   83  A    between atoms: _192  and  _193
REMARK   84  A    between atoms: _192  and  _195
REMARK   85  A    between atoms: _198  and  _200
REMARK   86  A    between atoms: _200  and  _201
REMARK   87  A    between atoms: _200  and  _203
REMARK   88  A    between atoms: _203  and  _204
REMARK   89  A    between atoms: _207  and  _209
REMARK   90  A    between atoms: _209  and  _210
REMARK   91  A    between atoms: _209  and  _212
REMARK   92  A    between atoms: _212  and  _213
REMARK   93  A    between atoms: _217  and  _218
REMARK   94  A    between atoms: _223  and  _225
REMARK   95  A    between atoms: _225  and  _226
REMARK   96  A    between atoms: _225  and  _228
REMARK   97  A    between atoms: _231  and  _233
REMARK   98  A    between atoms: _233  and  _234
REMARK   99  A    between atoms: _233  and  _236
REMARK  100  A    between atoms: _236  and  _237
REMARK  101  A    between atoms: _242  and  _244
REMARK  102  A    between atoms: _244  and  _245
REMARK  103  A    between atoms: _244  and  _247
REMARK  104  A    between atoms: _247  and  _248
REMARK  105  A    between atoms: _251  and  _253
REMARK  106  A    between atoms: _253  and  _254
REMARK  107  A    between atoms: _253  and  _256
REMARK  108  A    between atoms: _256  and  _257
REMARK  109  A    between atoms: _260  and  _262
REMARK  110  A    between atoms: _262  and  _263
REMARK  111  A    between atoms: _265  and  _267
REMARK  112  A    between atoms: _267  and  _268
REMARK  113  A    between atoms: _267  and  _270
REMARK  114  A    between atoms: _270  and  _271
REMARK  115  A    between atoms: _271  and  _272
REMARK  116  A    between atoms: _272  and  _273
REMARK  117  A    between atoms: _282  and  _284
REMARK  118  A    between atoms: _284  and  _285
REMARK  119  A    between atoms: _284  and  _287
REMARK  120  A    between atoms: _287  and  _288
REMARK  121  A    between atoms: _293  and  _295
REMARK  122  A    between atoms: _295  and  _296
REMARK  123  A    between atoms: _295  and  _298
REMARK  124  A    between atoms: _298  and  _299
REMARK  125  A    between atoms: _299  and  _300
REMARK  126  A    between atoms: _300  and  _301
REMARK  127  A    between atoms: _310  and  _312
REMARK  128  A    between atoms: _312  and  _313
REMARK  129  A    between atoms: _312  and  _315
REMARK  130  A    between atoms: _315  and  _316
REMARK  131  A    between atoms: _319  and  _321
REMARK  132  A    between atoms: _321  and  _322
REMARK  133  A    between atoms: _321  and  _324
REMARK  134  A    between atoms: _324  and  _325
REMARK  135  A    between atoms: _328  and  _330
REMARK  136  A    between atoms: _330  and  _331
REMARK  137  A    between atoms: _330  and  _333
REMARK  138  A    between atoms: _333  and  _334
REMARK  139  A    between atoms: _337  and  _339
REMARK  140  A    between atoms: _339  and  _340
REMARK  141  A    between atoms: _339  and  _342
REMARK  142  A    between atoms: _342  and  _343
REMARK  143  A    between atoms: _346  and  _348
REMARK  144  A    between atoms: _348  and  _349
REMARK  145  A    between atoms: _348  and  _351
REMARK  146  A    between atoms: _351  and  _352
REMARK  147  A    between atoms: _355  and  _357
REMARK  148  A    between atoms: _357  and  _358
REMARK  149  A    between atoms: _360  and  _362
REMARK  150  A    between atoms: _362  and  _363
REMARK  151  A    between atoms: _366  and  _368
REMARK  152  A    between atoms: _368  and  _369
REMARK  153  A    between atoms: _368  and  _371
REMARK  154  A    between atoms: _371  and  _372
REMARK  155  A    between atoms: _375  and  _377
REMARK  156  A    between atoms: _377  and  _378
REMARK  157  A    between atoms: _377  and  _380
REMARK  158  A    between atoms: _380  and  _381
REMARK  159  A    between atoms: _384  and  _386
REMARK  160  A    between atoms: _386  and  _387
REMARK  161  A    between atoms: _386  and  _389
REMARK  162  A    between atoms: _389  and  _390
REMARK  163  A    between atoms: _393  and  _395
REMARK  164  A    between atoms: _395  and  _396
REMARK  165  A    between atoms: _395  and  _398
REMARK  166  A    between atoms: _401  and  _403
REMARK  167  A    between atoms: _403  and  _404
REMARK  168  A    between atoms: _403  and  _406
REMARK  169  A    between atoms: _406  and  _407
REMARK  170  A    between atoms: _410  and  _412
REMARK  171  A    between atoms: _412  and  _413
REMARK  172  A    between atoms: _412  and  _415
REMARK  173  A    between atoms: _415  and  _416
REMARK  174  A    between atoms: _416  and  _417
REMARK  175  A    between atoms: _417  and  _418
REMARK  176  A    between atoms: _418  and  _419
REMARK  177  A    between atoms: _423  and  _425
REMARK  178  A    between atoms: _425  and  _426
REMARK  179  A    between atoms: _425  and  _428
REMARK  180  A    between atoms: _428  and  _429
REMARK  181  A    between atoms: _429  and  _430
REMARK  182  A    between atoms: _432  and  _434
REMARK  183  A    between atoms: _434  and  _435
REMARK  184  A    between atoms: _434  and  _437
REMARK  185  A    between atoms: _437  and  _438
REMARK  186  A    between atoms: _441  and  _443
REMARK  187  A    between atoms: _443  and  _444
REMARK  188  A    between atoms: _446  and  _448
REMARK  189  A    between atoms: _448  and  _449
REMARK  190  A    between atoms: _451  and  _453
REMARK  191  A    between atoms: _453  and  _454
REMARK  192  A    between atoms: _453  and  _456
REMARK  193  A    between atoms: _456  and  _457
REMARK  194  A    between atoms: _460  and  _462
REMARK  195  A    between atoms: _462  and  _463
REMARK  196  A    between atoms: _465  and  _467
REMARK  197  A    between atoms: _467  and  _468
REMARK  198  A    between atoms: _470  and  _472
REMARK  199  A    between atoms: _472  and  _473
REMARK  200  A    between atoms: _472  and  _475
REMARK  201  A    between atoms: _475  and  _476
REMARK  202  A    between atoms: _482  and  _484
REMARK  203  A    between atoms: _484  and  _485
REMARK  204  A    between atoms: _484  and  _487
REMARK  205  A    between atoms: _487  and  _488
REMARK  206  A    between atoms: _491  and  _493
REMARK  207  A    between atoms: _493  and  _494
REMARK  208  A    between atoms: _493  and  _496
REMARK  209  A    between atoms: _499  and  _501
REMARK  210  A    between atoms: _501  and  _502
REMARK  211  A    between atoms: _501  and  _504
REMARK  212  A    between atoms: _504  and  _505
REMARK  213  A    between atoms: _508  and  _510
REMARK  214  A    between atoms: _510  and  _511
REMARK  215  A    between atoms: _510  and  _513
REMARK  216  A    between atoms: _513  and  _514
REMARK  217  A    between atoms: _518  and  _519
REMARK  218  A    between atoms: _524  and  _526
REMARK  219  A    between atoms: _526  and  _527
REMARK  220  A    between atoms: _526  and  _529
REMARK  221  A    between atoms: _532  and  _534
REMARK  222  A    between atoms: _534  and  _535
REMARK  223  A    between atoms: _534  and  _537
REMARK  224  A    between atoms: _537  and  _538
REMARK  225  A    between atoms: _543  and  _545
REMARK  226  A    between atoms: _545  and  _546
REMARK  227  A    between atoms: _545  and  _548
REMARK  228  A    between atoms: _548  and  _549
REMARK  229  A    between atoms: _552  and  _554
REMARK  230  A    between atoms: _554  and  _555
REMARK  231  A    between atoms: _554  and  _557
REMARK  232  A    between atoms: _557  and  _558
REMARK  233  A    between atoms: _561  and  _563
REMARK  234  A    between atoms: _563  and  _564
REMARK  235  A    between atoms: _566  and  _568
REMARK  236  A    between atoms: _568  and  _569
REMARK  237  A    between atoms: _568  and  _571
REMARK  238  A    between atoms: _571  and  _572
REMARK  239  A    between atoms: _572  and  _573
REMARK  240  A    between atoms: _573  and  _574
REMARK  241  A    between atoms: _583  and  _585
REMARK  242  A    between atoms: _585  and  _586
REMARK  243  A    between atoms: _585  and  _588
REMARK  244  A    between atoms: _588  and  _589
REMARK                            x       y       z     vdW  Elec       q    Type
REMARK                         _______ _______ _______ _____ _____    ______ ____
ROOT
ATOM      1  O   HOH     1      22.308  12.621  -1.386  0.00  0.00    +0.000 OA
ENDROOT
TORSDOF 0
