REMARK  Name = ../refined-set-2016/1l6m/1l6m_pocket.pdb
REMARK  111 active torsions:
REMARK  status: ('A' for Active; 'I' for Inactive)
REMARK    1  A    between atoms: _1  and  _3
REMARK    2  A    between atoms: _3  and  _4
REMARK    3  A    between atoms: _3  and  _6
REMARK    4  A    between atoms: _9  and  _11
REMARK    5  A    between atoms: _11  and  _12
REMARK    6  A    between atoms: _11  and  _14
REMARK    7  A    between atoms: _14  and  _15
REMARK    8  A    between atoms: _18  and  _20
REMARK    9  A    between atoms: _20  and  _21
REMARK   10  A    between atoms: _20  and  _23
REMARK   11  A    between atoms: _23  and  _24
REMARK   12  A    between atoms: _24  and  _25
REMARK   13  A    between atoms: _30  and  _32
REMARK   14  A    between atoms: _32  and  _33
REMARK   15  A    between atoms: _32  and  _35
REMARK   16  A    between atoms: _35  and  _36
REMARK   17  A    between atoms: _41  and  _42
REMARK   18  A    between atoms: _44  and  _46
REMARK   19  A    between atoms: _46  and  _47
REMARK   20  A    between atoms: _50  and  _52
REMARK   21  A    between atoms: _52  and  _53
REMARK   22  A    between atoms: _52  and  _55
REMARK   23  A    between atoms: _55  and  _56
REMARK   24  A    between atoms: _59  and  _61
REMARK   25  A    between atoms: _61  and  _62
REMARK   26  A    between atoms: _61  and  _64
REMARK   27  A    between atoms: _64  and  _65
REMARK   28  A    between atoms: _70  and  _71
REMARK   29  A    between atoms: _73  and  _75
REMARK   30  A    between atoms: _75  and  _76
REMARK   31  A    between atoms: _75  and  _78
REMARK   32  A    between atoms: _81  and  _83
REMARK   33  A    between atoms: _83  and  _84
REMARK   34  A    between atoms: _83  and  _86
REMARK   35  A    between atoms: _86  and  _87
REMARK   36  A    between atoms: _90  and  _92
REMARK   37  A    between atoms: _92  and  _93
REMARK   38  A    between atoms: _92  and  _95
REMARK   39  A    between atoms: _95  and  _96
REMARK   40  A    between atoms: _98  and  _100
REMARK   41  A    between atoms: _100  and  _101
REMARK   42  A    between atoms: _100  and  _103
REMARK   43  A    between atoms: _106  and  _108
REMARK   44  A    between atoms: _108  and  _109
REMARK   45  A    between atoms: _108  and  _111
REMARK   46  A    between atoms: _111  and  _112
REMARK   47  A    between atoms: _115  and  _117
REMARK   48  A    between atoms: _117  and  _118
REMARK   49  A    between atoms: _117  and  _120
REMARK   50  A    between atoms: _120  and  _121
REMARK   51  A    between atoms: _121  and  _122
REMARK   52  A    between atoms: _122  and  _123
REMARK   53  A    between atoms: _132  and  _134
REMARK   54  A    between atoms: _134  and  _135
REMARK   55  A    between atoms: _134  and  _137
REMARK   56  A    between atoms: _137  and  _138
REMARK   57  A    between atoms: _141  and  _143
REMARK   58  A    between atoms: _143  and  _144
REMARK   59  A    between atoms: _143  and  _146
REMARK   60  A    between atoms: _146  and  _147
REMARK   61  A    between atoms: _152  and  _153
REMARK   62  A    between atoms: _155  and  _157
REMARK   63  A    between atoms: _157  and  _158
REMARK   64  A    between atoms: _157  and  _160
REMARK   65  A    between atoms: _160  and  _161
REMARK   66  A    between atoms: _171  and  _173
REMARK   67  A    between atoms: _173  and  _174
REMARK   68  A    between atoms: _173  and  _176
REMARK   69  A    between atoms: _176  and  _177
REMARK   70  A    between atoms: _180  and  _182
REMARK   71  A    between atoms: _182  and  _183
REMARK   72  A    between atoms: _182  and  _185
REMARK   73  A    between atoms: _185  and  _186
REMARK   74  A    between atoms: _186  and  _187
REMARK   75  A    between atoms: _187  and  _188
REMARK   76  A    between atoms: _197  and  _199
REMARK   77  A    between atoms: _199  and  _200
REMARK   78  A    between atoms: _199  and  _202
REMARK   79  A    between atoms: _202  and  _203
REMARK   80  A    between atoms: _209  and  _211
REMARK   81  A    between atoms: _211  and  _212
REMARK   82  A    between atoms: _211  and  _214
REMARK   83  A    between atoms: _214  and  _215
REMARK   84  A    between atoms: _220  and  _221
REMARK   85  A    between atoms: _223  and  _225
REMARK   86  A    between atoms: _225  and  _226
REMARK   87  A    between atoms: _225  and  _228
REMARK   88  A    between atoms: _228  and  _229
REMARK   89  A    between atoms: _235  and  _237
REMARK   90  A    between atoms: _237  and  _238
REMARK   91  A    between atoms: _237  and  _240
REMARK   92  A    between atoms: _240  and  _241
REMARK   93  A    between atoms: _241  and  _242
REMARK   94  A    between atoms: _242  and  _243
REMARK   95  A    between atoms: _243  and  _244
REMARK   96  A    between atoms: _248  and  _250
REMARK   97  A    between atoms: _250  and  _251
REMARK   98  A    between atoms: _250  and  _253
REMARK   99  A    between atoms: _253  and  _254
REMARK  100  A    between atoms: _254  and  _255
REMARK  101  A    between atoms: _255  and  _256
REMARK  102  A    between atoms: _256  and  _257
REMARK  103  A    between atoms: _261  and  _263
REMARK  104  A    between atoms: _263  and  _264
REMARK  105  A    between atoms: _263  and  _266
REMARK  106  A    between atoms: _266  and  _267
REMARK  107  A    between atoms: _270  and  _272
REMARK  108  A    between atoms: _272  and  _273
REMARK  109  A    between atoms: _272  and  _275
REMARK  110  A    between atoms: _275  and  _276
REMARK  111  A    between atoms: _281  and  _282
REMARK                            x       y       z     vdW  Elec       q    Type
REMARK                         _______ _______ _______ _____ _____    ______ ____
ROOT
ATOM      1  CA  VAL A   1      37.255  72.394  54.946  0.00  0.00    +0.133 C 
ENDROOT
BRANCH   1   2
ATOM      2  CB  VAL A   1      36.806  73.190  56.194  0.00  0.00    +0.023 C 
ATOM      3  CG2 VAL A   1      35.551  72.580  56.822  0.00  0.00    +0.002 C 
ATOM      4  CG1 VAL A   1      36.548  74.597  55.832  0.00  0.00    +0.002 C 
ENDBRANCH   1   2
BRANCH   1   5
ATOM      5  N   VAL A   1      37.651  71.071  55.314  0.00  0.00    -0.239 NA
ATOM      6  H   VAL A   1      38.003  70.898  56.277  0.00  0.00    +0.142 HD
ENDBRANCH   1   5
BRANCH   1   7
ATOM      7  C   VAL A   1      38.532  73.021  54.338  0.00  0.00    +0.224 C 
ATOM      8  O   VAL A   1      39.443  73.459  55.073  0.00  0.00    -0.287 OA
ENDBRANCH   1   7
TORSDOF 3
REMARK  Name = ../refined-set-2016/1l6m/1l6m_pocket.pdb
REMARK  111 active torsions:
REMARK  status: ('A' for Active; 'I' for Inactive)
REMARK    1  A    between atoms: _1  and  _3
REMARK    2  A    between atoms: _3  and  _4
REMARK    3  A    between atoms: _3  and  _6
REMARK    4  A    between atoms: _9  and  _11
REMARK    5  A    between atoms: _11  and  _12
REMARK    6  A    between atoms: _11  and  _14
REMARK    7  A    between atoms: _14  and  _15
REMARK    8  A    between atoms: _18  and  _20
REMARK    9  A    between atoms: _20  and  _21
REMARK   10  A    between atoms: _20  and  _23
REMARK   11  A    between atoms: _23  and  _24
REMARK   12  A    between atoms: _24  and  _25
REMARK   13  A    between atoms: _30  and  _32
REMARK   14  A    between atoms: _32  and  _33
REMARK   15  A    between atoms: _32  and  _35
REMARK   16  A    between atoms: _35  and  _36
REMARK   17  A    between atoms: _41  and  _42
REMARK   18  A    between atoms: _44  and  _46
REMARK   19  A    between atoms: _46  and  _47
REMARK   20  A    between atoms: _50  and  _52
REMARK   21  A    between atoms: _52  and  _53
REMARK   22  A    between atoms: _52  and  _55
REMARK   23  A    between atoms: _55  and  _56
REMARK   24  A    between atoms: _59  and  _61
REMARK   25  A    between atoms: _61  and  _62
REMARK   26  A    between atoms: _61  and  _64
REMARK   27  A    between atoms: _64  and  _65
REMARK   28  A    between atoms: _70  and  _71
REMARK   29  A    between atoms: _73  and  _75
REMARK   30  A    between atoms: _75  and  _76
REMARK   31  A    between atoms: _75  and  _78
REMARK   32  A    between atoms: _81  and  _83
REMARK   33  A    between atoms: _83  and  _84
REMARK   34  A    between atoms: _83  and  _86
REMARK   35  A    between atoms: _86  and  _87
REMARK   36  A    between atoms: _90  and  _92
REMARK   37  A    between atoms: _92  and  _93
REMARK   38  A    between atoms: _92  and  _95
REMARK   39  A    between atoms: _95  and  _96
REMARK   40  A    between atoms: _98  and  _100
REMARK   41  A    between atoms: _100  and  _101
REMARK   42  A    between atoms: _100  and  _103
REMARK   43  A    between atoms: _106  and  _108
REMARK   44  A    between atoms: _108  and  _109
REMARK   45  A    between atoms: _108  and  _111
REMARK   46  A    between atoms: _111  and  _112
REMARK   47  A    between atoms: _115  and  _117
REMARK   48  A    between atoms: _117  and  _118
REMARK   49  A    between atoms: _117  and  _120
REMARK   50  A    between atoms: _120  and  _121
REMARK   51  A    between atoms: _121  and  _122
REMARK   52  A    between atoms: _122  and  _123
REMARK   53  A    between atoms: _132  and  _134
REMARK   54  A    between atoms: _134  and  _135
REMARK   55  A    between atoms: _134  and  _137
REMARK   56  A    between atoms: _137  and  _138
REMARK   57  A    between atoms: _141  and  _143
REMARK   58  A    between atoms: _143  and  _144
REMARK   59  A    between atoms: _143  and  _146
REMARK   60  A    between atoms: _146  and  _147
REMARK   61  A    between atoms: _152  and  _153
REMARK   62  A    between atoms: _155  and  _157
REMARK   63  A    between atoms: _157  and  _158
REMARK   64  A    between atoms: _157  and  _160
REMARK   65  A    between atoms: _160  and  _161
REMARK   66  A    between atoms: _171  and  _173
REMARK   67  A    between atoms: _173  and  _174
REMARK   68  A    between atoms: _173  and  _176
REMARK   69  A    between atoms: _176  and  _177
REMARK   70  A    between atoms: _180  and  _182
REMARK   71  A    between atoms: _182  and  _183
REMARK   72  A    between atoms: _182  and  _185
REMARK   73  A    between atoms: _185  and  _186
REMARK   74  A    between atoms: _186  and  _187
REMARK   75  A    between atoms: _187  and  _188
REMARK   76  A    between atoms: _197  and  _199
REMARK   77  A    between atoms: _199  and  _200
REMARK   78  A    between atoms: _199  and  _202
REMARK   79  A    between atoms: _202  and  _203
REMARK   80  A    between atoms: _209  and  _211
REMARK   81  A    between atoms: _211  and  _212
REMARK   82  A    between atoms: _211  and  _214
REMARK   83  A    between atoms: _214  and  _215
REMARK   84  A    between atoms: _220  and  _221
REMARK   85  A    between atoms: _223  and  _225
REMARK   86  A    between atoms: _225  and  _226
REMARK   87  A    between atoms: _225  and  _228
REMARK   88  A    between atoms: _228  and  _229
REMARK   89  A    between atoms: _235  and  _237
REMARK   90  A    between atoms: _237  and  _238
REMARK   91  A    between atoms: _237  and  _240
REMARK   92  A    between atoms: _240  and  _241
REMARK   93  A    between atoms: _241  and  _242
REMARK   94  A    between atoms: _242  and  _243
REMARK   95  A    between atoms: _243  and  _244
REMARK   96  A    between atoms: _248  and  _250
REMARK   97  A    between atoms: _250  and  _251
REMARK   98  A    between atoms: _250  and  _253
REMARK   99  A    between atoms: _253  and  _254
REMARK  100  A    between atoms: _254  and  _255
REMARK  101  A    between atoms: _255  and  _256
REMARK  102  A    between atoms: _256  and  _257
REMARK  103  A    between atoms: _261  and  _263
REMARK  104  A    between atoms: _263  and  _264
REMARK  105  A    between atoms: _263  and  _266
REMARK  106  A    between atoms: _266  and  _267
REMARK  107  A    between atoms: _270  and  _272
REMARK  108  A    between atoms: _272  and  _273
REMARK  109  A    between atoms: _272  and  _275
REMARK  110  A    between atoms: _275  and  _276
REMARK  111  A    between atoms: _281  and  _282
REMARK                            x       y       z     vdW  Elec       q    Type
REMARK                         _______ _______ _______ _____ _____    ______ ____
ROOT
ATOM      1  CA  LEU A   1      35.867  79.067  54.173  0.00  0.00    +0.133 C 
ENDROOT
BRANCH   1   2
ATOM      2  N   LEU A   1      36.905  78.575  53.272  0.00  0.00    -0.239 NA
ATOM      3  H   LEU A   1      37.684  79.206  52.995  0.00  0.00    +0.142 HD
ENDBRANCH   1   2
BRANCH   1   4
ATOM      4  C   LEU A   1      35.590  80.552  53.924  0.00  0.00    +0.224 C 
ATOM      5  O   LEU A   1      36.508  81.373  54.059  0.00  0.00    -0.287 OA
ENDBRANCH   1   4
BRANCH   1   6
ATOM      6  CB  LEU A   1      36.366  78.946  55.604  0.00  0.00    +0.025 C 
BRANCH   6   7
ATOM      7  CG  LEU A   1      35.545  78.363  56.711  0.00  0.00    +0.002 C 
ATOM      8  CD2 LEU A   1      35.940  79.039  58.017  0.00  0.00    +0.000 C 
ATOM      9  CD1 LEU A   1      34.078  78.532  56.423  0.00  0.00    +0.000 C 
ENDBRANCH   6   7
ENDBRANCH   1   6
TORSDOF 4
REMARK  Name = ../refined-set-2016/1l6m/1l6m_pocket.pdb
REMARK  111 active torsions:
REMARK  status: ('A' for Active; 'I' for Inactive)
REMARK    1  A    between atoms: _1  and  _3
REMARK    2  A    between atoms: _3  and  _4
REMARK    3  A    between atoms: _3  and  _6
REMARK    4  A    between atoms: _9  and  _11
REMARK    5  A    between atoms: _11  and  _12
REMARK    6  A    between atoms: _11  and  _14
REMARK    7  A    between atoms: _14  and  _15
REMARK    8  A    between atoms: _18  and  _20
REMARK    9  A    between atoms: _20  and  _21
REMARK   10  A    between atoms: _20  and  _23
REMARK   11  A    between atoms: _23  and  _24
REMARK   12  A    between atoms: _24  and  _25
REMARK   13  A    between atoms: _30  and  _32
REMARK   14  A    between atoms: _32  and  _33
REMARK   15  A    between atoms: _32  and  _35
REMARK   16  A    between atoms: _35  and  _36
REMARK   17  A    between atoms: _41  and  _42
REMARK   18  A    between atoms: _44  and  _46
REMARK   19  A    between atoms: _46  and  _47
REMARK   20  A    between atoms: _50  and  _52
REMARK   21  A    between atoms: _52  and  _53
REMARK   22  A    between atoms: _52  and  _55
REMARK   23  A    between atoms: _55  and  _56
REMARK   24  A    between atoms: _59  and  _61
REMARK   25  A    between atoms: _61  and  _62
REMARK   26  A    between atoms: _61  and  _64
REMARK   27  A    between atoms: _64  and  _65
REMARK   28  A    between atoms: _70  and  _71
REMARK   29  A    between atoms: _73  and  _75
REMARK   30  A    between atoms: _75  and  _76
REMARK   31  A    between atoms: _75  and  _78
REMARK   32  A    between atoms: _81  and  _83
REMARK   33  A    between atoms: _83  and  _84
REMARK   34  A    between atoms: _83  and  _86
REMARK   35  A    between atoms: _86  and  _87
REMARK   36  A    between atoms: _90  and  _92
REMARK   37  A    between atoms: _92  and  _93
REMARK   38  A    between atoms: _92  and  _95
REMARK   39  A    between atoms: _95  and  _96
REMARK   40  A    between atoms: _98  and  _100
REMARK   41  A    between atoms: _100  and  _101
REMARK   42  A    between atoms: _100  and  _103
REMARK   43  A    between atoms: _106  and  _108
REMARK   44  A    between atoms: _108  and  _109
REMARK   45  A    between atoms: _108  and  _111
REMARK   46  A    between atoms: _111  and  _112
REMARK   47  A    between atoms: _115  and  _117
REMARK   48  A    between atoms: _117  and  _118
REMARK   49  A    between atoms: _117  and  _120
REMARK   50  A    between atoms: _120  and  _121
REMARK   51  A    between atoms: _121  and  _122
REMARK   52  A    between atoms: _122  and  _123
REMARK   53  A    between atoms: _132  and  _134
REMARK   54  A    between atoms: _134  and  _135
REMARK   55  A    between atoms: _134  and  _137
REMARK   56  A    between atoms: _137  and  _138
REMARK   57  A    between atoms: _141  and  _143
REMARK   58  A    between atoms: _143  and  _144
REMARK   59  A    between atoms: _143  and  _146
REMARK   60  A    between atoms: _146  and  _147
REMARK   61  A    between atoms: _152  and  _153
REMARK   62  A    between atoms: _155  and  _157
REMARK   63  A    between atoms: _157  and  _158
REMARK   64  A    between atoms: _157  and  _160
REMARK   65  A    between atoms: _160  and  _161
REMARK   66  A    between atoms: _171  and  _173
REMARK   67  A    between atoms: _173  and  _174
REMARK   68  A    between atoms: _173  and  _176
REMARK   69  A    between atoms: _176  and  _177
REMARK   70  A    between atoms: _180  and  _182
REMARK   71  A    between atoms: _182  and  _183
REMARK   72  A    between atoms: _182  and  _185
REMARK   73  A    between atoms: _185  and  _186
REMARK   74  A    between atoms: _186  and  _187
REMARK   75  A    between atoms: _187  and  _188
REMARK   76  A    between atoms: _197  and  _199
REMARK   77  A    between atoms: _199  and  _200
REMARK   78  A    between atoms: _199  and  _202
REMARK   79  A    between atoms: _202  and  _203
REMARK   80  A    between atoms: _209  and  _211
REMARK   81  A    between atoms: _211  and  _212
REMARK   82  A    between atoms: _211  and  _214
REMARK   83  A    between atoms: _214  and  _215
REMARK   84  A    between atoms: _220  and  _221
REMARK   85  A    between atoms: _223  and  _225
REMARK   86  A    between atoms: _225  and  _226
REMARK   87  A    between atoms: _225  and  _228
REMARK   88  A    between atoms: _228  and  _229
REMARK   89  A    between atoms: _235  and  _237
REMARK   90  A    between atoms: _237  and  _238
REMARK   91  A    between atoms: _237  and  _240
REMARK   92  A    between atoms: _240  and  _241
REMARK   93  A    between atoms: _241  and  _242
REMARK   94  A    between atoms: _242  and  _243
REMARK   95  A    between atoms: _243  and  _244
REMARK   96  A    between atoms: _248  and  _250
REMARK   97  A    between atoms: _250  and  _251
REMARK   98  A    between atoms: _250  and  _253
REMARK   99  A    between atoms: _253  and  _254
REMARK  100  A    between atoms: _254  and  _255
REMARK  101  A    between atoms: _255  and  _256
REMARK  102  A    between atoms: _256  and  _257
REMARK  103  A    between atoms: _261  and  _263
REMARK  104  A    between atoms: _263  and  _264
REMARK  105  A    between atoms: _263  and  _266
REMARK  106  A    between atoms: _266  and  _267
REMARK  107  A    between atoms: _270  and  _272
REMARK  108  A    between atoms: _272  and  _273
REMARK  109  A    between atoms: _272  and  _275
REMARK  110  A    between atoms: _275  and  _276
REMARK  111  A    between atoms: _281  and  _282
REMARK                            x       y       z     vdW  Elec       q    Type
REMARK                         _______ _______ _______ _____ _____    ______ ____
ROOT
ATOM      1  CB  GLN A   1      41.576  79.710  60.035  0.00  0.00    +0.035 C 
ENDROOT
BRANCH   1   2
ATOM      2  CA  GLN A   1      42.873  79.374  60.775  0.00  0.00    +0.134 C 
BRANCH   2   3
ATOM      3  N   GLN A   1      43.820  80.436  60.548  0.00  0.00    -0.239 NA
ATOM      4  H   GLN A   1      43.493  81.270  60.019  0.00  0.00    +0.142 HD
ENDBRANCH   2   3
BRANCH   2   5
ATOM      5  C   GLN A   1      43.404  77.988  60.383  0.00  0.00    +0.224 C 
ATOM      6  O   GLN A   1      43.938  77.751  59.302  0.00  0.00    -0.287 OA
ENDBRANCH   2   5
ENDBRANCH   1   2
BRANCH   1   7
ATOM      7  CG  GLN A   1      40.499  78.671  60.244  0.00  0.00    +0.087 C 
BRANCH   7   8
ATOM      8  CD  GLN A   1      39.213  79.202  60.834  0.00  0.00    +0.219 C 
ATOM      9  OE1 GLN A   1      38.556  78.478  61.584  0.00  0.00    -0.275 OA
ATOM     10  NE2 GLN A   1      38.817  80.446  60.484  0.00  0.00    -0.329 N 
ATOM     11 HE21 GLN A   1      37.923  80.830  60.851  0.00  0.00    +0.145 HD
ATOM     12 HE22 GLN A   1      39.406  81.020  59.847  0.00  0.00    +0.145 HD
ENDBRANCH   7   8
ENDBRANCH   1   7
TORSDOF 5
REMARK  Name = ../refined-set-2016/1l6m/1l6m_pocket.pdb
REMARK  111 active torsions:
REMARK  status: ('A' for Active; 'I' for Inactive)
REMARK    1  A    between atoms: _1  and  _3
REMARK    2  A    between atoms: _3  and  _4
REMARK    3  A    between atoms: _3  and  _6
REMARK    4  A    between atoms: _9  and  _11
REMARK    5  A    between atoms: _11  and  _12
REMARK    6  A    between atoms: _11  and  _14
REMARK    7  A    between atoms: _14  and  _15
REMARK    8  A    between atoms: _18  and  _20
REMARK    9  A    between atoms: _20  and  _21
REMARK   10  A    between atoms: _20  and  _23
REMARK   11  A    between atoms: _23  and  _24
REMARK   12  A    between atoms: _24  and  _25
REMARK   13  A    between atoms: _30  and  _32
REMARK   14  A    between atoms: _32  and  _33
REMARK   15  A    between atoms: _32  and  _35
REMARK   16  A    between atoms: _35  and  _36
REMARK   17  A    between atoms: _41  and  _42
REMARK   18  A    between atoms: _44  and  _46
REMARK   19  A    between atoms: _46  and  _47
REMARK   20  A    between atoms: _50  and  _52
REMARK   21  A    between atoms: _52  and  _53
REMARK   22  A    between atoms: _52  and  _55
REMARK   23  A    between atoms: _55  and  _56
REMARK   24  A    between atoms: _59  and  _61
REMARK   25  A    between atoms: _61  and  _62
REMARK   26  A    between atoms: _61  and  _64
REMARK   27  A    between atoms: _64  and  _65
REMARK   28  A    between atoms: _70  and  _71
REMARK   29  A    between atoms: _73  and  _75
REMARK   30  A    between atoms: _75  and  _76
REMARK   31  A    between atoms: _75  and  _78
REMARK   32  A    between atoms: _81  and  _83
REMARK   33  A    between atoms: _83  and  _84
REMARK   34  A    between atoms: _83  and  _86
REMARK   35  A    between atoms: _86  and  _87
REMARK   36  A    between atoms: _90  and  _92
REMARK   37  A    between atoms: _92  and  _93
REMARK   38  A    between atoms: _92  and  _95
REMARK   39  A    between atoms: _95  and  _96
REMARK   40  A    between atoms: _98  and  _100
REMARK   41  A    between atoms: _100  and  _101
REMARK   42  A    between atoms: _100  and  _103
REMARK   43  A    between atoms: _106  and  _108
REMARK   44  A    between atoms: _108  and  _109
REMARK   45  A    between atoms: _108  and  _111
REMARK   46  A    between atoms: _111  and  _112
REMARK   47  A    between atoms: _115  and  _117
REMARK   48  A    between atoms: _117  and  _118
REMARK   49  A    between atoms: _117  and  _120
REMARK   50  A    between atoms: _120  and  _121
REMARK   51  A    between atoms: _121  and  _122
REMARK   52  A    between atoms: _122  and  _123
REMARK   53  A    between atoms: _132  and  _134
REMARK   54  A    between atoms: _134  and  _135
REMARK   55  A    between atoms: _134  and  _137
REMARK   56  A    between atoms: _137  and  _138
REMARK   57  A    between atoms: _141  and  _143
REMARK   58  A    between atoms: _143  and  _144
REMARK   59  A    between atoms: _143  and  _146
REMARK   60  A    between atoms: _146  and  _147
REMARK   61  A    between atoms: _152  and  _153
REMARK   62  A    between atoms: _155  and  _157
REMARK   63  A    between atoms: _157  and  _158
REMARK   64  A    between atoms: _157  and  _160
REMARK   65  A    between atoms: _160  and  _161
REMARK   66  A    between atoms: _171  and  _173
REMARK   67  A    between atoms: _173  and  _174
REMARK   68  A    between atoms: _173  and  _176
REMARK   69  A    between atoms: _176  and  _177
REMARK   70  A    between atoms: _180  and  _182
REMARK   71  A    between atoms: _182  and  _183
REMARK   72  A    between atoms: _182  and  _185
REMARK   73  A    between atoms: _185  and  _186
REMARK   74  A    between atoms: _186  and  _187
REMARK   75  A    between atoms: _187  and  _188
REMARK   76  A    between atoms: _197  and  _199
REMARK   77  A    between atoms: _199  and  _200
REMARK   78  A    between atoms: _199  and  _202
REMARK   79  A    between atoms: _202  and  _203
REMARK   80  A    between atoms: _209  and  _211
REMARK   81  A    between atoms: _211  and  _212
REMARK   82  A    between atoms: _211  and  _214
REMARK   83  A    between atoms: _214  and  _215
REMARK   84  A    between atoms: _220  and  _221
REMARK   85  A    between atoms: _223  and  _225
REMARK   86  A    between atoms: _225  and  _226
REMARK   87  A    between atoms: _225  and  _228
REMARK   88  A    between atoms: _228  and  _229
REMARK   89  A    between atoms: _235  and  _237
REMARK   90  A    between atoms: _237  and  _238
REMARK   91  A    between atoms: _237  and  _240
REMARK   92  A    between atoms: _240  and  _241
REMARK   93  A    between atoms: _241  and  _242
REMARK   94  A    between atoms: _242  and  _243
REMARK   95  A    between atoms: _243  and  _244
REMARK   96  A    between atoms: _248  and  _250
REMARK   97  A    between atoms: _250  and  _251
REMARK   98  A    between atoms: _250  and  _253
REMARK   99  A    between atoms: _253  and  _254
REMARK  100  A    between atoms: _254  and  _255
REMARK  101  A    between atoms: _255  and  _256
REMARK  102  A    between atoms: _256  and  _257
REMARK  103  A    between atoms: _261  and  _263
REMARK  104  A    between atoms: _263  and  _264
REMARK  105  A    between atoms: _263  and  _266
REMARK  106  A    between atoms: _266  and  _267
REMARK  107  A    between atoms: _270  and  _272
REMARK  108  A    between atoms: _272  and  _273
REMARK  109  A    between atoms: _272  and  _275
REMARK  110  A    between atoms: _275  and  _276
REMARK  111  A    between atoms: _281  and  _282
REMARK                            x       y       z     vdW  Elec       q    Type
REMARK                         _______ _______ _______ _____ _____    ______ ____
ROOT
ATOM      1  C   TYR A   1      38.449  70.438  59.616  0.00  0.00    +0.239 C 
ATOM      2  N   ALA A   2      37.737  69.439  60.162  0.00  0.00    -0.297 N 
ATOM      3  H   ALA A   2      37.755  69.287  61.191  0.00  0.00    +0.150 HD
ATOM      4  O   TYR A   1      38.504  70.647  58.373  0.00  0.00    -0.274 OA
ENDROOT
BRANCH   2   5
ATOM      5  CA  ALA A   2      36.925  68.553  59.294  0.00  0.00    +0.149 C 
ATOM      6  CB  ALA A   2      37.656  67.212  59.058  0.00  0.00    +0.031 C 
BRANCH   5   7
ATOM      7  C   ALA A   2      35.464  68.295  59.766  0.00  0.00    +0.241 C 
ATOM      8  O   ALA A   2      35.092  68.434  60.949  0.00  0.00    -0.273 OA
ATOM      9  N   THR A   3      34.653  67.859  58.821  0.00  0.00    -0.296 N 
ATOM     10  H   THR A   3      35.017  67.698  57.860  0.00  0.00    +0.150 HD
BRANCH   9  11
ATOM     11  CA  THR A   3      33.252  67.602  59.118  0.00  0.00    +0.164 C 
BRANCH  11  12
ATOM     12  CB  THR A   3      32.403  68.729  58.574  0.00  0.00    +0.136 C 
ATOM     13  CG2 THR A   3      30.961  68.463  58.745  0.00  0.00    +0.034 C 
BRANCH  12  14
ATOM     14  OG1 THR A   3      32.747  69.909  59.283  0.00  0.00    -0.382 OA
ATOM     15  HG1 THR A   3      32.568  69.777  60.248  0.00  0.00    +0.210 HD
ENDBRANCH  12  14
ENDBRANCH  11  12
BRANCH  11  16
ATOM     16  C   THR A   3      32.843  66.271  58.544  0.00  0.00    +0.229 C 
ATOM     17  O   THR A   3      33.037  66.030  57.355  0.00  0.00    -0.286 OA
ENDBRANCH  11  16
ENDBRANCH   9  11
ENDBRANCH   5   7
ENDBRANCH   2   5
BRANCH   1  18
ATOM     18  CA  TYR A   1      39.248  71.321  60.546  0.00  0.00    +0.149 C 
BRANCH  18  19
ATOM     19  N   TYR A   1      39.928  72.195  59.656  0.00  0.00    -0.238 NA
ATOM     20  H   TYR A   1      39.424  72.653  58.870  0.00  0.00    +0.142 HD
ENDBRANCH  18  19
BRANCH  18  21
ATOM     21  CB  TYR A   1      38.375  72.092  61.516  0.00  0.00    +0.053 C 
BRANCH  21  22
ATOM     22  CG  TYR A   1      37.316  72.956  60.893  0.00  0.00    -0.020 A 
ATOM     23  CD2 TYR A   1      36.001  72.468  60.747  0.00  0.00    -0.001 A 
ATOM     24  CE2 TYR A   1      34.994  73.226  60.189  0.00  0.00    +0.036 A 
ATOM     25  CZ  TYR A   1      35.272  74.510  59.734  0.00  0.00    +0.134 A 
ATOM     26  CE1 TYR A   1      36.579  75.051  59.851  0.00  0.00    +0.036 A 
ATOM     27  CD1 TYR A   1      37.596  74.268  60.437  0.00  0.00    -0.001 A 
BRANCH  25  28
ATOM     28  OH  TYR A   1      34.220  75.195  59.149  0.00  0.00    -0.506 OA
ATOM     29  HH  TYR A   1      34.529  76.091  58.864  0.00  0.00    +0.292 HD
ENDBRANCH  25  28
ENDBRANCH  21  22
ENDBRANCH  18  21
ENDBRANCH   1  18
TORSDOF 11
REMARK  Name = ../refined-set-2016/1l6m/1l6m_pocket.pdb
REMARK  111 active torsions:
REMARK  status: ('A' for Active; 'I' for Inactive)
REMARK    1  A    between atoms: _1  and  _3
REMARK    2  A    between atoms: _3  and  _4
REMARK    3  A    between atoms: _3  and  _6
REMARK    4  A    between atoms: _9  and  _11
REMARK    5  A    between atoms: _11  and  _12
REMARK    6  A    between atoms: _11  and  _14
REMARK    7  A    between atoms: _14  and  _15
REMARK    8  A    between atoms: _18  and  _20
REMARK    9  A    between atoms: _20  and  _21
REMARK   10  A    between atoms: _20  and  _23
REMARK   11  A    between atoms: _23  and  _24
REMARK   12  A    between atoms: _24  and  _25
REMARK   13  A    between atoms: _30  and  _32
REMARK   14  A    between atoms: _32  and  _33
REMARK   15  A    between atoms: _32  and  _35
REMARK   16  A    between atoms: _35  and  _36
REMARK   17  A    between atoms: _41  and  _42
REMARK   18  A    between atoms: _44  and  _46
REMARK   19  A    between atoms: _46  and  _47
REMARK   20  A    between atoms: _50  and  _52
REMARK   21  A    between atoms: _52  and  _53
REMARK   22  A    between atoms: _52  and  _55
REMARK   23  A    between atoms: _55  and  _56
REMARK   24  A    between atoms: _59  and  _61
REMARK   25  A    between atoms: _61  and  _62
REMARK   26  A    between atoms: _61  and  _64
REMARK   27  A    between atoms: _64  and  _65
REMARK   28  A    between atoms: _70  and  _71
REMARK   29  A    between atoms: _73  and  _75
REMARK   30  A    between atoms: _75  and  _76
REMARK   31  A    between atoms: _75  and  _78
REMARK   32  A    between atoms: _81  and  _83
REMARK   33  A    between atoms: _83  and  _84
REMARK   34  A    between atoms: _83  and  _86
REMARK   35  A    between atoms: _86  and  _87
REMARK   36  A    between atoms: _90  and  _92
REMARK   37  A    between atoms: _92  and  _93
REMARK   38  A    between atoms: _92  and  _95
REMARK   39  A    between atoms: _95  and  _96
REMARK   40  A    between atoms: _98  and  _100
REMARK   41  A    between atoms: _100  and  _101
REMARK   42  A    between atoms: _100  and  _103
REMARK   43  A    between atoms: _106  and  _108
REMARK   44  A    between atoms: _108  and  _109
REMARK   45  A    between atoms: _108  and  _111
REMARK   46  A    between atoms: _111  and  _112
REMARK   47  A    between atoms: _115  and  _117
REMARK   48  A    between atoms: _117  and  _118
REMARK   49  A    between atoms: _117  and  _120
REMARK   50  A    between atoms: _120  and  _121
REMARK   51  A    between atoms: _121  and  _122
REMARK   52  A    between atoms: _122  and  _123
REMARK   53  A    between atoms: _132  and  _134
REMARK   54  A    between atoms: _134  and  _135
REMARK   55  A    between atoms: _134  and  _137
REMARK   56  A    between atoms: _137  and  _138
REMARK   57  A    between atoms: _141  and  _143
REMARK   58  A    between atoms: _143  and  _144
REMARK   59  A    between atoms: _143  and  _146
REMARK   60  A    between atoms: _146  and  _147
REMARK   61  A    between atoms: _152  and  _153
REMARK   62  A    between atoms: _155  and  _157
REMARK   63  A    between atoms: _157  and  _158
REMARK   64  A    between atoms: _157  and  _160
REMARK   65  A    between atoms: _160  and  _161
REMARK   66  A    between atoms: _171  and  _173
REMARK   67  A    between atoms: _173  and  _174
REMARK   68  A    between atoms: _173  and  _176
REMARK   69  A    between atoms: _176  and  _177
REMARK   70  A    between atoms: _180  and  _182
REMARK   71  A    between atoms: _182  and  _183
REMARK   72  A    between atoms: _182  and  _185
REMARK   73  A    between atoms: _185  and  _186
REMARK   74  A    between atoms: _186  and  _187
REMARK   75  A    between atoms: _187  and  _188
REMARK   76  A    between atoms: _197  and  _199
REMARK   77  A    between atoms: _199  and  _200
REMARK   78  A    between atoms: _199  and  _202
REMARK   79  A    between atoms: _202  and  _203
REMARK   80  A    between atoms: _209  and  _211
REMARK   81  A    between atoms: _211  and  _212
REMARK   82  A    between atoms: _211  and  _214
REMARK   83  A    between atoms: _214  and  _215
REMARK   84  A    between atoms: _220  and  _221
REMARK   85  A    between atoms: _223  and  _225
REMARK   86  A    between atoms: _225  and  _226
REMARK   87  A    between atoms: _225  and  _228
REMARK   88  A    between atoms: _228  and  _229
REMARK   89  A    between atoms: _235  and  _237
REMARK   90  A    between atoms: _237  and  _238
REMARK   91  A    between atoms: _237  and  _240
REMARK   92  A    between atoms: _240  and  _241
REMARK   93  A    between atoms: _241  and  _242
REMARK   94  A    between atoms: _242  and  _243
REMARK   95  A    between atoms: _243  and  _244
REMARK   96  A    between atoms: _248  and  _250
REMARK   97  A    between atoms: _250  and  _251
REMARK   98  A    between atoms: _250  and  _253
REMARK   99  A    between atoms: _253  and  _254
REMARK  100  A    between atoms: _254  and  _255
REMARK  101  A    between atoms: _255  and  _256
REMARK  102  A    between atoms: _256  and  _257
REMARK  103  A    between atoms: _261  and  _263
REMARK  104  A    between atoms: _263  and  _264
REMARK  105  A    between atoms: _263  and  _266
REMARK  106  A    between atoms: _266  and  _267
REMARK  107  A    between atoms: _270  and  _272
REMARK  108  A    between atoms: _272  and  _273
REMARK  109  A    between atoms: _272  and  _275
REMARK  110  A    between atoms: _275  and  _276
REMARK  111  A    between atoms: _281  and  _282
REMARK                            x       y       z     vdW  Elec       q    Type
REMARK                         _______ _______ _______ _____ _____    ______ ____
ROOT
ATOM      1  CG  TYR A   1      27.987  65.451  56.173  0.00  0.00    -0.020 A 
ATOM      2  CD2 TYR A   1      29.181  66.174  56.136  0.00  0.00    -0.001 A 
ATOM      3  CE2 TYR A   1      29.157  67.534  56.054  0.00  0.00    +0.036 A 
ATOM      4  CZ  TYR A   1      27.928  68.229  55.984  0.00  0.00    +0.134 A 
ATOM      5  CE1 TYR A   1      26.733  67.540  55.978  0.00  0.00    +0.036 A 
ATOM      6  CD1 TYR A   1      26.759  66.167  56.076  0.00  0.00    -0.001 A 
ENDROOT
BRANCH   4   7
ATOM      7  OH  TYR A   1      27.902  69.617  55.995  0.00  0.00    -0.506 OA
ATOM      8  HH  TYR A   1      28.412  69.962  55.220  0.00  0.00    +0.292 HD
ENDBRANCH   4   7
BRANCH   1   9
ATOM      9  CB  TYR A   1      27.977  63.972  56.381  0.00  0.00    +0.051 C 
BRANCH   9  10
ATOM     10  CA  TYR A   1      28.349  63.409  57.748  0.00  0.00    +0.137 C 
BRANCH  10  11
ATOM     11  N   TYR A   1      29.790  63.548  57.963  0.00  0.00    -0.239 NA
ATOM     12  H   TYR A   1      30.438  63.227  57.215  0.00  0.00    +0.142 HD
ENDBRANCH  10  11
BRANCH  10  13
ATOM     13  C   TYR A   1      27.922  61.921  57.675  0.00  0.00    +0.224 C 
ATOM     14  O   TYR A   1      28.332  61.236  56.750  0.00  0.00    -0.287 OA
ENDBRANCH  10  13
ENDBRANCH   9  10
ENDBRANCH   1   9
TORSDOF 5
REMARK  Name = ../refined-set-2016/1l6m/1l6m_pocket.pdb
REMARK  111 active torsions:
REMARK  status: ('A' for Active; 'I' for Inactive)
REMARK    1  A    between atoms: _1  and  _3
REMARK    2  A    between atoms: _3  and  _4
REMARK    3  A    between atoms: _3  and  _6
REMARK    4  A    between atoms: _9  and  _11
REMARK    5  A    between atoms: _11  and  _12
REMARK    6  A    between atoms: _11  and  _14
REMARK    7  A    between atoms: _14  and  _15
REMARK    8  A    between atoms: _18  and  _20
REMARK    9  A    between atoms: _20  and  _21
REMARK   10  A    between atoms: _20  and  _23
REMARK   11  A    between atoms: _23  and  _24
REMARK   12  A    between atoms: _24  and  _25
REMARK   13  A    between atoms: _30  and  _32
REMARK   14  A    between atoms: _32  and  _33
REMARK   15  A    between atoms: _32  and  _35
REMARK   16  A    between atoms: _35  and  _36
REMARK   17  A    between atoms: _41  and  _42
REMARK   18  A    between atoms: _44  and  _46
REMARK   19  A    between atoms: _46  and  _47
REMARK   20  A    between atoms: _50  and  _52
REMARK   21  A    between atoms: _52  and  _53
REMARK   22  A    between atoms: _52  and  _55
REMARK   23  A    between atoms: _55  and  _56
REMARK   24  A    between atoms: _59  and  _61
REMARK   25  A    between atoms: _61  and  _62
REMARK   26  A    between atoms: _61  and  _64
REMARK   27  A    between atoms: _64  and  _65
REMARK   28  A    between atoms: _70  and  _71
REMARK   29  A    between atoms: _73  and  _75
REMARK   30  A    between atoms: _75  and  _76
REMARK   31  A    between atoms: _75  and  _78
REMARK   32  A    between atoms: _81  and  _83
REMARK   33  A    between atoms: _83  and  _84
REMARK   34  A    between atoms: _83  and  _86
REMARK   35  A    between atoms: _86  and  _87
REMARK   36  A    between atoms: _90  and  _92
REMARK   37  A    between atoms: _92  and  _93
REMARK   38  A    between atoms: _92  and  _95
REMARK   39  A    between atoms: _95  and  _96
REMARK   40  A    between atoms: _98  and  _100
REMARK   41  A    between atoms: _100  and  _101
REMARK   42  A    between atoms: _100  and  _103
REMARK   43  A    between atoms: _106  and  _108
REMARK   44  A    between atoms: _108  and  _109
REMARK   45  A    between atoms: _108  and  _111
REMARK   46  A    between atoms: _111  and  _112
REMARK   47  A    between atoms: _115  and  _117
REMARK   48  A    between atoms: _117  and  _118
REMARK   49  A    between atoms: _117  and  _120
REMARK   50  A    between atoms: _120  and  _121
REMARK   51  A    between atoms: _121  and  _122
REMARK   52  A    between atoms: _122  and  _123
REMARK   53  A    between atoms: _132  and  _134
REMARK   54  A    between atoms: _134  and  _135
REMARK   55  A    between atoms: _134  and  _137
REMARK   56  A    between atoms: _137  and  _138
REMARK   57  A    between atoms: _141  and  _143
REMARK   58  A    between atoms: _143  and  _144
REMARK   59  A    between atoms: _143  and  _146
REMARK   60  A    between atoms: _146  and  _147
REMARK   61  A    between atoms: _152  and  _153
REMARK   62  A    between atoms: _155  and  _157
REMARK   63  A    between atoms: _157  and  _158
REMARK   64  A    between atoms: _157  and  _160
REMARK   65  A    between atoms: _160  and  _161
REMARK   66  A    between atoms: _171  and  _173
REMARK   67  A    between atoms: _173  and  _174
REMARK   68  A    between atoms: _173  and  _176
REMARK   69  A    between atoms: _176  and  _177
REMARK   70  A    between atoms: _180  and  _182
REMARK   71  A    between atoms: _182  and  _183
REMARK   72  A    between atoms: _182  and  _185
REMARK   73  A    between atoms: _185  and  _186
REMARK   74  A    between atoms: _186  and  _187
REMARK   75  A    between atoms: _187  and  _188
REMARK   76  A    between atoms: _197  and  _199
REMARK   77  A    between atoms: _199  and  _200
REMARK   78  A    between atoms: _199  and  _202
REMARK   79  A    between atoms: _202  and  _203
REMARK   80  A    between atoms: _209  and  _211
REMARK   81  A    between atoms: _211  and  _212
REMARK   82  A    between atoms: _211  and  _214
REMARK   83  A    between atoms: _214  and  _215
REMARK   84  A    between atoms: _220  and  _221
REMARK   85  A    between atoms: _223  and  _225
REMARK   86  A    between atoms: _225  and  _226
REMARK   87  A    between atoms: _225  and  _228
REMARK   88  A    between atoms: _228  and  _229
REMARK   89  A    between atoms: _235  and  _237
REMARK   90  A    between atoms: _237  and  _238
REMARK   91  A    between atoms: _237  and  _240
REMARK   92  A    between atoms: _240  and  _241
REMARK   93  A    between atoms: _241  and  _242
REMARK   94  A    between atoms: _242  and  _243
REMARK   95  A    between atoms: _243  and  _244
REMARK   96  A    between atoms: _248  and  _250
REMARK   97  A    between atoms: _250  and  _251
REMARK   98  A    between atoms: _250  and  _253
REMARK   99  A    between atoms: _253  and  _254
REMARK  100  A    between atoms: _254  and  _255
REMARK  101  A    between atoms: _255  and  _256
REMARK  102  A    between atoms: _256  and  _257
REMARK  103  A    between atoms: _261  and  _263
REMARK  104  A    between atoms: _263  and  _264
REMARK  105  A    between atoms: _263  and  _266
REMARK  106  A    between atoms: _266  and  _267
REMARK  107  A    between atoms: _270  and  _272
REMARK  108  A    between atoms: _272  and  _273
REMARK  109  A    between atoms: _272  and  _275
REMARK  110  A    between atoms: _275  and  _276
REMARK  111  A    between atoms: _281  and  _282
REMARK                            x       y       z     vdW  Elec       q    Type
REMARK                         _______ _______ _______ _____ _____    ______ ____
ROOT
ATOM      1  CA  SER A   3      33.053  68.660  63.144  0.00  0.00    +0.178 C 
ENDROOT
BRANCH   1   3
ATOM      2  C   THR A   2      31.615  66.725  62.977  0.00  0.00    +0.243 C 
ATOM      3  N   SER A   3      31.891  67.877  63.571  0.00  0.00    -0.295 N 
ATOM      4  H   SER A   3      31.283  68.225  64.340  0.00  0.00    +0.150 HD
ATOM      5  O   THR A   2      32.290  66.297  62.030  0.00  0.00    -0.273 OA
BRANCH   2   6
ATOM      6  CA  THR A   2      30.414  65.947  63.511  0.00  0.00    +0.176 C 
BRANCH   6   9
ATOM      7  C   VAL A   1      28.161  66.277  62.718  0.00  0.00    +0.238 C 
ATOM      8  O   VAL A   1      27.830  66.973  63.677  0.00  0.00    -0.274 OA
ATOM      9  N   THR A   2      29.373  65.767  62.543  0.00  0.00    -0.295 N 
ATOM     10  H   THR A   2      29.573  65.222  61.680  0.00  0.00    +0.150 HD
BRANCH   7  11
ATOM     11  CA  VAL A   1      27.185  65.974  61.629  0.00  0.00    +0.145 C 
BRANCH  11  12
ATOM     12  CB  VAL A   1      26.667  67.257  60.987  0.00  0.00    +0.025 C 
ATOM     13  CG2 VAL A   1      27.807  68.113  60.420  0.00  0.00    +0.002 C 
ATOM     14  CG1 VAL A   1      25.625  66.852  59.906  0.00  0.00    +0.002 C 
ENDBRANCH  11  12
BRANCH  11  15
ATOM     15  N   VAL A   1      26.065  65.220  62.171  0.00  0.00    -0.238 NA
ATOM     16  H   VAL A   1      25.460  65.643  62.904  0.00  0.00    +0.142 HD
ENDBRANCH  11  15
ENDBRANCH   7  11
ENDBRANCH   6   9
BRANCH   6  17
ATOM     17  CB  THR A   2      30.878  64.595  64.004  0.00  0.00    +0.137 C 
ATOM     18  CG2 THR A   2      32.035  64.737  64.968  0.00  0.00    +0.034 C 
BRANCH  17  19
ATOM     19  OG1 THR A   2      29.767  63.969  64.659  0.00  0.00    -0.382 OA
ATOM     20  HG1 THR A   2      29.022  63.866  64.016  0.00  0.00    +0.210 HD
ENDBRANCH  17  19
ENDBRANCH   6  17
ENDBRANCH   2   6
ENDBRANCH   1   3
BRANCH   1  21
ATOM     21  C   SER A   3      34.084  68.445  64.223  0.00  0.00    +0.243 C 
ATOM     22  O   SER A   3      33.786  68.321  65.426  0.00  0.00    -0.273 OA
ATOM     23  N   VAL A   4      35.325  68.352  63.779  0.00  0.00    -0.297 N 
ATOM     24  H   VAL A   4      35.512  68.441  62.760  0.00  0.00    +0.150 HD
BRANCH  23  25
ATOM     25  CA  VAL A   4      36.422  68.129  64.685  0.00  0.00    +0.149 C 
BRANCH  25  26
ATOM     26  C   VAL A   4      37.501  69.150  64.349  0.00  0.00    +0.241 C 
ATOM     27  N   LEU A   5      37.926  69.875  65.387  0.00  0.00    -0.298 N 
ATOM     28  H   LEU A   5      37.510  69.740  66.330  0.00  0.00    +0.150 HD
ATOM     29  O   VAL A   4      37.896  69.323  63.173  0.00  0.00    -0.273 OA
BRANCH  27  30
ATOM     30  CA  LEU A   5      38.968  70.845  65.181  0.00  0.00    +0.137 C 
BRANCH  30  31
ATOM     31  C   LEU A   5      40.029  70.756  66.273  0.00  0.00    +0.227 C 
ATOM     32  O   LEU A   5      39.758  70.282  67.393  0.00  0.00    -0.286 OA
ENDBRANCH  30  31
BRANCH  30  33
ATOM     33  CB  LEU A   5      38.386  72.238  65.069  0.00  0.00    +0.028 C 
BRANCH  33  34
ATOM     34  CG  LEU A   5      37.783  72.925  66.259  0.00  0.00    +0.002 C 
ATOM     35  CD2 LEU A   5      38.935  73.427  67.159  0.00  0.00    +0.000 C 
ATOM     36  CD1 LEU A   5      36.999  74.167  65.751  0.00  0.00    +0.000 C 
ENDBRANCH  33  34
ENDBRANCH  30  33
ENDBRANCH  27  30
ENDBRANCH  25  26
BRANCH  25  37
ATOM     37  CB  VAL A   4      36.937  66.652  64.572  0.00  0.00    +0.027 C 
ATOM     38  CG2 VAL A   4      38.319  66.536  64.967  0.00  0.00    +0.002 C 
ATOM     39  CG1 VAL A   4      36.875  66.169  63.116  0.00  0.00    +0.002 C 
ENDBRANCH  25  37
ENDBRANCH  23  25
ENDBRANCH   1  21
BRANCH   1  40
ATOM     40  CB  SER A   3      32.739  70.155  63.000  0.00  0.00    +0.166 C 
BRANCH  40  41
ATOM     41  OG  SER A   3      31.848  70.324  61.878  0.00  0.00    -0.380 OA
ATOM     42  H   SER A   3      32.286  69.988  61.056  0.00  0.00    +0.211 HD
ENDBRANCH  40  41
ENDBRANCH   1  40
TORSDOF 18
REMARK  Name = ../refined-set-2016/1l6m/1l6m_pocket.pdb
REMARK  111 active torsions:
REMARK  status: ('A' for Active; 'I' for Inactive)
REMARK    1  A    between atoms: _1  and  _3
REMARK    2  A    between atoms: _3  and  _4
REMARK    3  A    between atoms: _3  and  _6
REMARK    4  A    between atoms: _9  and  _11
REMARK    5  A    between atoms: _11  and  _12
REMARK    6  A    between atoms: _11  and  _14
REMARK    7  A    between atoms: _14  and  _15
REMARK    8  A    between atoms: _18  and  _20
REMARK    9  A    between atoms: _20  and  _21
REMARK   10  A    between atoms: _20  and  _23
REMARK   11  A    between atoms: _23  and  _24
REMARK   12  A    between atoms: _24  and  _25
REMARK   13  A    between atoms: _30  and  _32
REMARK   14  A    between atoms: _32  and  _33
REMARK   15  A    between atoms: _32  and  _35
REMARK   16  A    between atoms: _35  and  _36
REMARK   17  A    between atoms: _41  and  _42
REMARK   18  A    between atoms: _44  and  _46
REMARK   19  A    between atoms: _46  and  _47
REMARK   20  A    between atoms: _50  and  _52
REMARK   21  A    between atoms: _52  and  _53
REMARK   22  A    between atoms: _52  and  _55
REMARK   23  A    between atoms: _55  and  _56
REMARK   24  A    between atoms: _59  and  _61
REMARK   25  A    between atoms: _61  and  _62
REMARK   26  A    between atoms: _61  and  _64
REMARK   27  A    between atoms: _64  and  _65
REMARK   28  A    between atoms: _70  and  _71
REMARK   29  A    between atoms: _73  and  _75
REMARK   30  A    between atoms: _75  and  _76
REMARK   31  A    between atoms: _75  and  _78
REMARK   32  A    between atoms: _81  and  _83
REMARK   33  A    between atoms: _83  and  _84
REMARK   34  A    between atoms: _83  and  _86
REMARK   35  A    between atoms: _86  and  _87
REMARK   36  A    between atoms: _90  and  _92
REMARK   37  A    between atoms: _92  and  _93
REMARK   38  A    between atoms: _92  and  _95
REMARK   39  A    between atoms: _95  and  _96
REMARK   40  A    between atoms: _98  and  _100
REMARK   41  A    between atoms: _100  and  _101
REMARK   42  A    between atoms: _100  and  _103
REMARK   43  A    between atoms: _106  and  _108
REMARK   44  A    between atoms: _108  and  _109
REMARK   45  A    between atoms: _108  and  _111
REMARK   46  A    between atoms: _111  and  _112
REMARK   47  A    between atoms: _115  and  _117
REMARK   48  A    between atoms: _117  and  _118
REMARK   49  A    between atoms: _117  and  _120
REMARK   50  A    between atoms: _120  and  _121
REMARK   51  A    between atoms: _121  and  _122
REMARK   52  A    between atoms: _122  and  _123
REMARK   53  A    between atoms: _132  and  _134
REMARK   54  A    between atoms: _134  and  _135
REMARK   55  A    between atoms: _134  and  _137
REMARK   56  A    between atoms: _137  and  _138
REMARK   57  A    between atoms: _141  and  _143
REMARK   58  A    between atoms: _143  and  _144
REMARK   59  A    between atoms: _143  and  _146
REMARK   60  A    between atoms: _146  and  _147
REMARK   61  A    between atoms: _152  and  _153
REMARK   62  A    between atoms: _155  and  _157
REMARK   63  A    between atoms: _157  and  _158
REMARK   64  A    between atoms: _157  and  _160
REMARK   65  A    between atoms: _160  and  _161
REMARK   66  A    between atoms: _171  and  _173
REMARK   67  A    between atoms: _173  and  _174
REMARK   68  A    between atoms: _173  and  _176
REMARK   69  A    between atoms: _176  and  _177
REMARK   70  A    between atoms: _180  and  _182
REMARK   71  A    between atoms: _182  and  _183
REMARK   72  A    between atoms: _182  and  _185
REMARK   73  A    between atoms: _185  and  _186
REMARK   74  A    between atoms: _186  and  _187
REMARK   75  A    between atoms: _187  and  _188
REMARK   76  A    between atoms: _197  and  _199
REMARK   77  A    between atoms: _199  and  _200
REMARK   78  A    between atoms: _199  and  _202
REMARK   79  A    between atoms: _202  and  _203
REMARK   80  A    between atoms: _209  and  _211
REMARK   81  A    between atoms: _211  and  _212
REMARK   82  A    between atoms: _211  and  _214
REMARK   83  A    between atoms: _214  and  _215
REMARK   84  A    between atoms: _220  and  _221
REMARK   85  A    between atoms: _223  and  _225
REMARK   86  A    between atoms: _225  and  _226
REMARK   87  A    between atoms: _225  and  _228
REMARK   88  A    between atoms: _228  and  _229
REMARK   89  A    between atoms: _235  and  _237
REMARK   90  A    between atoms: _237  and  _238
REMARK   91  A    between atoms: _237  and  _240
REMARK   92  A    between atoms: _240  and  _241
REMARK   93  A    between atoms: _241  and  _242
REMARK   94  A    between atoms: _242  and  _243
REMARK   95  A    between atoms: _243  and  _244
REMARK   96  A    between atoms: _248  and  _250
REMARK   97  A    between atoms: _250  and  _251
REMARK   98  A    between atoms: _250  and  _253
REMARK   99  A    between atoms: _253  and  _254
REMARK  100  A    between atoms: _254  and  _255
REMARK  101  A    between atoms: _255  and  _256
REMARK  102  A    between atoms: _256  and  _257
REMARK  103  A    between atoms: _261  and  _263
REMARK  104  A    between atoms: _263  and  _264
REMARK  105  A    between atoms: _263  and  _266
REMARK  106  A    between atoms: _266  and  _267
REMARK  107  A    between atoms: _270  and  _272
REMARK  108  A    between atoms: _272  and  _273
REMARK  109  A    between atoms: _272  and  _275
REMARK  110  A    between atoms: _275  and  _276
REMARK  111  A    between atoms: _281  and  _282
REMARK                            x       y       z     vdW  Elec       q    Type
REMARK                         _______ _______ _______ _____ _____    ______ ____
ROOT
ATOM      1  NE  ARG A   1      38.687  76.270  71.247  0.00  0.00    -0.265 N 
ATOM      2  HE  ARG A   1      37.772  75.781  71.322  0.00  0.00    +0.259 HD
ATOM      3  CZ  ARG A   1      38.700  77.603  71.254  0.00  0.00    +0.342 C 
ATOM      4  NH2 ARG A   1      37.548  78.275  71.399  0.00  0.00    -0.292 N 
ATOM      5 HH21 ARG A   1      36.653  77.756  71.505  0.00  0.00    +0.255 HD
ATOM      6 HH22 ARG A   1      37.550  79.315  71.405  0.00  0.00    +0.255 HD
ATOM      7  NH1 ARG A   1      39.857  78.266  71.055  0.00  0.00    -0.292 N 
ATOM      8 HH11 ARG A   1      39.868  79.306  71.060  0.00  0.00    +0.255 HD
ATOM      9 HH12 ARG A   1      40.739  77.737  70.896  0.00  0.00    +0.255 HD
ENDROOT
BRANCH   1  10
ATOM     10  CD  ARG A   1      39.902  75.467  71.138  0.00  0.00    +0.174 C 
BRANCH  10  11
ATOM     11  CG  ARG A   1      40.024  74.413  70.007  0.00  0.00    +0.045 C 
BRANCH  11  12
ATOM     12  CB  ARG A   1      41.310  74.716  69.191  0.00  0.00    +0.029 C 
BRANCH  12  13
ATOM     13  CA  ARG A   1      42.565  73.846  69.435  0.00  0.00    +0.133 C 
BRANCH  13  14
ATOM     14  N   ARG A   1      42.379  72.597  68.761  0.00  0.00    -0.239 NA
ATOM     15  H   ARG A   1      42.081  71.758  69.299  0.00  0.00    +0.142 HD
ENDBRANCH  13  14
BRANCH  13  16
ATOM     16  C   ARG A   1      42.883  73.659  70.938  0.00  0.00    +0.224 C 
ATOM     17  O   ARG A   1      42.312  72.783  71.614  0.00  0.00    -0.287 OA
ENDBRANCH  13  16
ENDBRANCH  12  13
ENDBRANCH  11  12
ENDBRANCH  10  11
ENDBRANCH   1  10
TORSDOF 6
REMARK  Name = ../refined-set-2016/1l6m/1l6m_pocket.pdb
REMARK  111 active torsions:
REMARK  status: ('A' for Active; 'I' for Inactive)
REMARK    1  A    between atoms: _1  and  _3
REMARK    2  A    between atoms: _3  and  _4
REMARK    3  A    between atoms: _3  and  _6
REMARK    4  A    between atoms: _9  and  _11
REMARK    5  A    between atoms: _11  and  _12
REMARK    6  A    between atoms: _11  and  _14
REMARK    7  A    between atoms: _14  and  _15
REMARK    8  A    between atoms: _18  and  _20
REMARK    9  A    between atoms: _20  and  _21
REMARK   10  A    between atoms: _20  and  _23
REMARK   11  A    between atoms: _23  and  _24
REMARK   12  A    between atoms: _24  and  _25
REMARK   13  A    between atoms: _30  and  _32
REMARK   14  A    between atoms: _32  and  _33
REMARK   15  A    between atoms: _32  and  _35
REMARK   16  A    between atoms: _35  and  _36
REMARK   17  A    between atoms: _41  and  _42
REMARK   18  A    between atoms: _44  and  _46
REMARK   19  A    between atoms: _46  and  _47
REMARK   20  A    between atoms: _50  and  _52
REMARK   21  A    between atoms: _52  and  _53
REMARK   22  A    between atoms: _52  and  _55
REMARK   23  A    between atoms: _55  and  _56
REMARK   24  A    between atoms: _59  and  _61
REMARK   25  A    between atoms: _61  and  _62
REMARK   26  A    between atoms: _61  and  _64
REMARK   27  A    between atoms: _64  and  _65
REMARK   28  A    between atoms: _70  and  _71
REMARK   29  A    between atoms: _73  and  _75
REMARK   30  A    between atoms: _75  and  _76
REMARK   31  A    between atoms: _75  and  _78
REMARK   32  A    between atoms: _81  and  _83
REMARK   33  A    between atoms: _83  and  _84
REMARK   34  A    between atoms: _83  and  _86
REMARK   35  A    between atoms: _86  and  _87
REMARK   36  A    between atoms: _90  and  _92
REMARK   37  A    between atoms: _92  and  _93
REMARK   38  A    between atoms: _92  and  _95
REMARK   39  A    between atoms: _95  and  _96
REMARK   40  A    between atoms: _98  and  _100
REMARK   41  A    between atoms: _100  and  _101
REMARK   42  A    between atoms: _100  and  _103
REMARK   43  A    between atoms: _106  and  _108
REMARK   44  A    between atoms: _108  and  _109
REMARK   45  A    between atoms: _108  and  _111
REMARK   46  A    between atoms: _111  and  _112
REMARK   47  A    between atoms: _115  and  _117
REMARK   48  A    between atoms: _117  and  _118
REMARK   49  A    between atoms: _117  and  _120
REMARK   50  A    between atoms: _120  and  _121
REMARK   51  A    between atoms: _121  and  _122
REMARK   52  A    between atoms: _122  and  _123
REMARK   53  A    between atoms: _132  and  _134
REMARK   54  A    between atoms: _134  and  _135
REMARK   55  A    between atoms: _134  and  _137
REMARK   56  A    between atoms: _137  and  _138
REMARK   57  A    between atoms: _141  and  _143
REMARK   58  A    between atoms: _143  and  _144
REMARK   59  A    between atoms: _143  and  _146
REMARK   60  A    between atoms: _146  and  _147
REMARK   61  A    between atoms: _152  and  _153
REMARK   62  A    between atoms: _155  and  _157
REMARK   63  A    between atoms: _157  and  _158
REMARK   64  A    between atoms: _157  and  _160
REMARK   65  A    between atoms: _160  and  _161
REMARK   66  A    between atoms: _171  and  _173
REMARK   67  A    between atoms: _173  and  _174
REMARK   68  A    between atoms: _173  and  _176
REMARK   69  A    between atoms: _176  and  _177
REMARK   70  A    between atoms: _180  and  _182
REMARK   71  A    between atoms: _182  and  _183
REMARK   72  A    between atoms: _182  and  _185
REMARK   73  A    between atoms: _185  and  _186
REMARK   74  A    between atoms: _186  and  _187
REMARK   75  A    between atoms: _187  and  _188
REMARK   76  A    between atoms: _197  and  _199
REMARK   77  A    between atoms: _199  and  _200
REMARK   78  A    between atoms: _199  and  _202
REMARK   79  A    between atoms: _202  and  _203
REMARK   80  A    between atoms: _209  and  _211
REMARK   81  A    between atoms: _211  and  _212
REMARK   82  A    between atoms: _211  and  _214
REMARK   83  A    between atoms: _214  and  _215
REMARK   84  A    between atoms: _220  and  _221
REMARK   85  A    between atoms: _223  and  _225
REMARK   86  A    between atoms: _225  and  _226
REMARK   87  A    between atoms: _225  and  _228
REMARK   88  A    between atoms: _228  and  _229
REMARK   89  A    between atoms: _235  and  _237
REMARK   90  A    between atoms: _237  and  _238
REMARK   91  A    between atoms: _237  and  _240
REMARK   92  A    between atoms: _240  and  _241
REMARK   93  A    between atoms: _241  and  _242
REMARK   94  A    between atoms: _242  and  _243
REMARK   95  A    between atoms: _243  and  _244
REMARK   96  A    between atoms: _248  and  _250
REMARK   97  A    between atoms: _250  and  _251
REMARK   98  A    between atoms: _250  and  _253
REMARK   99  A    between atoms: _253  and  _254
REMARK  100  A    between atoms: _254  and  _255
REMARK  101  A    between atoms: _255  and  _256
REMARK  102  A    between atoms: _256  and  _257
REMARK  103  A    between atoms: _261  and  _263
REMARK  104  A    between atoms: _263  and  _264
REMARK  105  A    between atoms: _263  and  _266
REMARK  106  A    between atoms: _266  and  _267
REMARK  107  A    between atoms: _270  and  _272
REMARK  108  A    between atoms: _272  and  _273
REMARK  109  A    between atoms: _272  and  _275
REMARK  110  A    between atoms: _275  and  _276
REMARK  111  A    between atoms: _281  and  _282
REMARK                            x       y       z     vdW  Elec       q    Type
REMARK                         _______ _______ _______ _____ _____    ______ ____
ROOT
ATOM      1  CA  TRP A   3      31.086  69.808  67.645  0.00  0.00    +0.153 C 
ENDROOT
BRANCH   1   4
ATOM      2  C   TYR A   2      32.688  68.490  68.938  0.00  0.00    +0.241 C 
ATOM      3  O   TYR A   2      32.093  68.657  70.005  0.00  0.00    -0.273 OA
ATOM      4  N   TRP A   3      32.258  68.952  67.778  0.00  0.00    -0.297 N 
ATOM      5  H   TRP A   3      32.781  68.692  66.917  0.00  0.00    +0.150 HD
BRANCH   2   6
ATOM      6  CA  TYR A   2      33.999  67.702  68.862  0.00  0.00    +0.153 C 
BRANCH   6   8
ATOM      7  C   ASP A   1      36.032  68.931  69.150  0.00  0.00    +0.239 C 
ATOM      8  N   TYR A   2      35.006  68.300  69.682  0.00  0.00    -0.297 N 
ATOM      9  H   TYR A   2      34.927  68.235  70.717  0.00  0.00    +0.150 HD
ATOM     10  O   ASP A   1      36.173  69.086  67.921  0.00  0.00    -0.274 OA
BRANCH   7  11
ATOM     11  CA  ASP A   1      37.071  69.451  70.152  0.00  0.00    +0.156 C 
BRANCH  11  12
ATOM     12  N   ASP A   1      38.455  69.147  69.684  0.00  0.00    -0.238 NA
ATOM     13  H   ASP A   1      38.905  69.732  68.951  0.00  0.00    +0.142 HD
ENDBRANCH  11  12
BRANCH  11  14
ATOM     14  CB  ASP A   1      36.828  70.927  70.326  0.00  0.00    +0.140 C 
BRANCH  14  15
ATOM     15  CG  ASP A   1      37.914  71.617  71.116  0.00  0.00    +0.367 C 
ATOM     16  OD2 ASP A   1      38.796  70.968  71.728  0.00  0.00    -0.246 OA
ATOM     17  OD1 ASP A   1      37.863  72.856  71.104  0.00  0.00    -0.246 OA
ENDBRANCH  14  15
ENDBRANCH  11  14
ENDBRANCH   7  11
ENDBRANCH   6   8
BRANCH   6  18
ATOM     18  CB  TYR A   2      33.860  66.244  69.275  0.00  0.00    +0.055 C 
BRANCH  18  19
ATOM     19  CG  TYR A   2      35.046  65.428  68.881  0.00  0.00    -0.020 A 
ATOM     20  CD2 TYR A   2      36.047  65.128  69.829  0.00  0.00    -0.001 A 
ATOM     21  CE2 TYR A   2      37.168  64.294  69.509  0.00  0.00    +0.036 A 
ATOM     22  CZ  TYR A   2      37.306  63.781  68.230  0.00  0.00    +0.134 A 
ATOM     23  CE1 TYR A   2      36.291  64.078  67.253  0.00  0.00    +0.036 A 
ATOM     24  CD1 TYR A   2      35.178  64.891  67.584  0.00  0.00    -0.001 A 
BRANCH  22  25
ATOM     25  OH  TYR A   2      38.506  63.113  67.876  0.00  0.00    -0.506 OA
ATOM     26  HH  TYR A   2      38.448  62.808  66.936  0.00  0.00    +0.292 HD
ENDBRANCH  22  25
ENDBRANCH  18  19
ENDBRANCH   6  18
ENDBRANCH   2   6
ENDBRANCH   1   4
BRANCH   1  27
ATOM     27  C   TRP A   3      30.025  68.981  66.904  0.00  0.00    +0.241 C 
ATOM     28  N   ILE A   4      28.935  68.670  67.601  0.00  0.00    -0.297 N 
ATOM     29  H   ILE A   4      28.824  69.017  68.575  0.00  0.00    +0.150 HD
ATOM     30  O   TRP A   3      30.213  68.602  65.733  0.00  0.00    -0.273 OA
BRANCH  28  31
ATOM     31  CA  ILE A   4      27.894  67.840  66.997  0.00  0.00    +0.149 C 
BRANCH  31  32
ATOM     32  C   ILE A   4      26.549  68.501  66.675  0.00  0.00    +0.241 C 
ATOM     33  O   ILE A   4      26.091  69.332  67.380  0.00  0.00    -0.273 OA
ATOM     34  N   ARG A   5      25.892  68.118  65.600  0.00  0.00    -0.298 N 
ATOM     35  H   ARG A   5      26.293  67.377  64.990  0.00  0.00    +0.150 HD
BRANCH  34  36
ATOM     36  CA  ARG A   5      24.615  68.716  65.255  0.00  0.00    +0.137 C 
BRANCH  36  37
ATOM     37  C   ARG A   5      23.873  67.783  64.236  0.00  0.00    +0.227 C 
ATOM     38  O   ARG A   5      24.436  66.876  63.619  0.00  0.00    -0.286 OA
ENDBRANCH  36  37
BRANCH  36  39
ATOM     39  CB  ARG A   5      24.812  70.143  64.672  0.00  0.00    +0.031 C 
BRANCH  39  40
ATOM     40  CG  ARG A   5      25.700  70.219  63.541  0.00  0.00    +0.045 C 
BRANCH  40  41
ATOM     41  CD  ARG A   5      26.628  71.514  63.598  0.00  0.00    +0.174 C 
BRANCH  41  42
ATOM     42  NE  ARG A   5      27.392  71.770  62.326  0.00  0.00    -0.265 N 
ATOM     43  CZ  ARG A   5      28.535  71.166  61.973  0.00  0.00    +0.342 C 
ATOM     44  NH2 ARG A   5      29.091  70.238  62.846  0.00  0.00    -0.292 N 
ATOM     45 HH21 ARG A   5      28.620  70.027  63.749  0.00  0.00    +0.255 HD
ATOM     46 HH22 ARG A   5      29.978  69.755  62.596  0.00  0.00    +0.255 HD
ATOM     47  NH1 ARG A   5      29.076  71.468  60.740  0.00  0.00    -0.292 N 
ATOM     48 HH11 ARG A   5      29.962  71.016  60.436  0.00  0.00    +0.255 HD
ATOM     49 HH12 ARG A   5      28.598  72.147  60.114  0.00  0.00    +0.255 HD
ATOM     50  HE  ARG A   5      27.001  72.473  61.667  0.00  0.00    +0.259 HD
ENDBRANCH  41  42
ENDBRANCH  40  41
ENDBRANCH  39  40
ENDBRANCH  36  39
ENDBRANCH  34  36
ENDBRANCH  31  32
BRANCH  31  51
ATOM     51  CB  ILE A   4      27.600  66.665  67.849  0.00  0.00    +0.027 C 
ATOM     52  CG2 ILE A   4      26.577  65.736  67.195  0.00  0.00    +0.002 C 
BRANCH  51  53
ATOM     53  CG1 ILE A   4      28.879  65.868  67.979  0.00  0.00    +0.002 C 
ATOM     54  CD1 ILE A   4      28.943  65.040  69.250  0.00  0.00    +0.000 C 
ENDBRANCH  51  53
ENDBRANCH  31  51
ENDBRANCH  28  31
ENDBRANCH   1  27
BRANCH   1  55
ATOM     55  CB  TRP A   3      31.597  71.067  66.881  0.00  0.00    +0.057 C 
BRANCH  55  56
ATOM     56  CG  TRP A   3      30.586  71.925  66.234  0.00  0.00    -0.002 A 
ATOM     57  CD2 TRP A   3      29.503  72.617  66.883  0.00  0.00    +0.013 A 
ATOM     58  CE3 TRP A   3      29.139  72.831  68.239  0.00  0.00    +0.001 A 
ATOM     59  CZ3 TRP A   3      27.962  73.542  68.514  0.00  0.00    +0.000 A 
ATOM     60  CH2 TRP A   3      27.168  74.031  67.468  0.00  0.00    +0.001 A 
ATOM     61  CZ2 TRP A   3      27.507  73.844  66.142  0.00  0.00    +0.017 A 
ATOM     62  CE2 TRP A   3      28.663  73.144  65.853  0.00  0.00    +0.056 A 
ATOM     63  NE1 TRP A   3      29.210  72.817  64.637  0.00  0.00    -0.352 N 
ATOM     64  HE1 TRP A   3      28.822  73.075  63.707  0.00  0.00    +0.166 HD
ATOM     65  CD1 TRP A   3      30.374  72.081  64.858  0.00  0.00    +0.068 A 
ENDBRANCH  55  56
ENDBRANCH   1  55
TORSDOF 23
REMARK  Name = ../refined-set-2016/1l6m/1l6m_pocket.pdb
REMARK  111 active torsions:
REMARK  status: ('A' for Active; 'I' for Inactive)
REMARK    1  A    between atoms: _1  and  _3
REMARK    2  A    between atoms: _3  and  _4
REMARK    3  A    between atoms: _3  and  _6
REMARK    4  A    between atoms: _9  and  _11
REMARK    5  A    between atoms: _11  and  _12
REMARK    6  A    between atoms: _11  and  _14
REMARK    7  A    between atoms: _14  and  _15
REMARK    8  A    between atoms: _18  and  _20
REMARK    9  A    between atoms: _20  and  _21
REMARK   10  A    between atoms: _20  and  _23
REMARK   11  A    between atoms: _23  and  _24
REMARK   12  A    between atoms: _24  and  _25
REMARK   13  A    between atoms: _30  and  _32
REMARK   14  A    between atoms: _32  and  _33
REMARK   15  A    between atoms: _32  and  _35
REMARK   16  A    between atoms: _35  and  _36
REMARK   17  A    between atoms: _41  and  _42
REMARK   18  A    between atoms: _44  and  _46
REMARK   19  A    between atoms: _46  and  _47
REMARK   20  A    between atoms: _50  and  _52
REMARK   21  A    between atoms: _52  and  _53
REMARK   22  A    between atoms: _52  and  _55
REMARK   23  A    between atoms: _55  and  _56
REMARK   24  A    between atoms: _59  and  _61
REMARK   25  A    between atoms: _61  and  _62
REMARK   26  A    between atoms: _61  and  _64
REMARK   27  A    between atoms: _64  and  _65
REMARK   28  A    between atoms: _70  and  _71
REMARK   29  A    between atoms: _73  and  _75
REMARK   30  A    between atoms: _75  and  _76
REMARK   31  A    between atoms: _75  and  _78
REMARK   32  A    between atoms: _81  and  _83
REMARK   33  A    between atoms: _83  and  _84
REMARK   34  A    between atoms: _83  and  _86
REMARK   35  A    between atoms: _86  and  _87
REMARK   36  A    between atoms: _90  and  _92
REMARK   37  A    between atoms: _92  and  _93
REMARK   38  A    between atoms: _92  and  _95
REMARK   39  A    between atoms: _95  and  _96
REMARK   40  A    between atoms: _98  and  _100
REMARK   41  A    between atoms: _100  and  _101
REMARK   42  A    between atoms: _100  and  _103
REMARK   43  A    between atoms: _106  and  _108
REMARK   44  A    between atoms: _108  and  _109
REMARK   45  A    between atoms: _108  and  _111
REMARK   46  A    between atoms: _111  and  _112
REMARK   47  A    between atoms: _115  and  _117
REMARK   48  A    between atoms: _117  and  _118
REMARK   49  A    between atoms: _117  and  _120
REMARK   50  A    between atoms: _120  and  _121
REMARK   51  A    between atoms: _121  and  _122
REMARK   52  A    between atoms: _122  and  _123
REMARK   53  A    between atoms: _132  and  _134
REMARK   54  A    between atoms: _134  and  _135
REMARK   55  A    between atoms: _134  and  _137
REMARK   56  A    between atoms: _137  and  _138
REMARK   57  A    between atoms: _141  and  _143
REMARK   58  A    between atoms: _143  and  _144
REMARK   59  A    between atoms: _143  and  _146
REMARK   60  A    between atoms: _146  and  _147
REMARK   61  A    between atoms: _152  and  _153
REMARK   62  A    between atoms: _155  and  _157
REMARK   63  A    between atoms: _157  and  _158
REMARK   64  A    between atoms: _157  and  _160
REMARK   65  A    between atoms: _160  and  _161
REMARK   66  A    between atoms: _171  and  _173
REMARK   67  A    between atoms: _173  and  _174
REMARK   68  A    between atoms: _173  and  _176
REMARK   69  A    between atoms: _176  and  _177
REMARK   70  A    between atoms: _180  and  _182
REMARK   71  A    between atoms: _182  and  _183
REMARK   72  A    between atoms: _182  and  _185
REMARK   73  A    between atoms: _185  and  _186
REMARK   74  A    between atoms: _186  and  _187
REMARK   75  A    between atoms: _187  and  _188
REMARK   76  A    between atoms: _197  and  _199
REMARK   77  A    between atoms: _199  and  _200
REMARK   78  A    between atoms: _199  and  _202
REMARK   79  A    between atoms: _202  and  _203
REMARK   80  A    between atoms: _209  and  _211
REMARK   81  A    between atoms: _211  and  _212
REMARK   82  A    between atoms: _211  and  _214
REMARK   83  A    between atoms: _214  and  _215
REMARK   84  A    between atoms: _220  and  _221
REMARK   85  A    between atoms: _223  and  _225
REMARK   86  A    between atoms: _225  and  _226
REMARK   87  A    between atoms: _225  and  _228
REMARK   88  A    between atoms: _228  and  _229
REMARK   89  A    between atoms: _235  and  _237
REMARK   90  A    between atoms: _237  and  _238
REMARK   91  A    between atoms: _237  and  _240
REMARK   92  A    between atoms: _240  and  _241
REMARK   93  A    between atoms: _241  and  _242
REMARK   94  A    between atoms: _242  and  _243
REMARK   95  A    between atoms: _243  and  _244
REMARK   96  A    between atoms: _248  and  _250
REMARK   97  A    between atoms: _250  and  _251
REMARK   98  A    between atoms: _250  and  _253
REMARK   99  A    between atoms: _253  and  _254
REMARK  100  A    between atoms: _254  and  _255
REMARK  101  A    between atoms: _255  and  _256
REMARK  102  A    between atoms: _256  and  _257
REMARK  103  A    between atoms: _261  and  _263
REMARK  104  A    between atoms: _263  and  _264
REMARK  105  A    between atoms: _263  and  _266
REMARK  106  A    between atoms: _266  and  _267
REMARK  107  A    between atoms: _270  and  _272
REMARK  108  A    between atoms: _272  and  _273
REMARK  109  A    between atoms: _272  and  _275
REMARK  110  A    between atoms: _275  and  _276
REMARK  111  A    between atoms: _281  and  _282
REMARK                            x       y       z     vdW  Elec       q    Type
REMARK                         _______ _______ _______ _____ _____    ______ ____
ROOT
ATOM      1  CB  PHE A   1      21.931  68.331  58.503  0.00  0.00    +0.000 C 
ENDROOT
BRANCH   1   2
ATOM      2  CG  PHE A   1      23.029  69.316  58.718  0.00  0.00    +0.000 A 
ATOM      3  CD2 PHE A   1      23.105  70.093  59.885  0.00  0.00    +0.000 A 
ATOM      4  CE2 PHE A   1      24.165  71.004  60.111  0.00  0.00    +0.000 A 
ATOM      5  CZ  PHE A   1      25.182  71.143  59.144  0.00  0.00    +0.000 A 
ATOM      6  CE1 PHE A   1      25.103  70.332  57.911  0.00  0.00    +0.000 A 
ATOM      7  CD1 PHE A   1      24.037  69.448  57.732  0.00  0.00    +0.000 A 
ENDBRANCH   1   2
BRANCH   1   8
ATOM      8  CA  PHE A   1      20.902  68.249  59.647  0.00  0.00    +0.000 C 
BRANCH   8   9
ATOM      9  N   PHE A   1      21.419  67.558  60.830  0.00  0.00    +0.000 NA
ATOM     10  H   PHE A   1      21.976  66.687  60.713  0.00  0.00    +0.000 HD
ENDBRANCH   8   9
BRANCH   8  11
ATOM     11  C   PHE A   1      19.664  67.428  59.170  0.00  0.00    +0.000 C 
ATOM     12  O   PHE A   1      19.760  66.226  58.850  0.00  0.00    +0.000 OA
ENDBRANCH   8  11
ENDBRANCH   1   8
TORSDOF 4
REMARK  Name = ../refined-set-2016/1l6m/1l6m_pocket.pdb
REMARK  111 active torsions:
REMARK  status: ('A' for Active; 'I' for Inactive)
REMARK    1  A    between atoms: _1  and  _3
REMARK    2  A    between atoms: _3  and  _4
REMARK    3  A    between atoms: _3  and  _6
REMARK    4  A    between atoms: _9  and  _11
REMARK    5  A    between atoms: _11  and  _12
REMARK    6  A    between atoms: _11  and  _14
REMARK    7  A    between atoms: _14  and  _15
REMARK    8  A    between atoms: _18  and  _20
REMARK    9  A    between atoms: _20  and  _21
REMARK   10  A    between atoms: _20  and  _23
REMARK   11  A    between atoms: _23  and  _24
REMARK   12  A    between atoms: _24  and  _25
REMARK   13  A    between atoms: _30  and  _32
REMARK   14  A    between atoms: _32  and  _33
REMARK   15  A    between atoms: _32  and  _35
REMARK   16  A    between atoms: _35  and  _36
REMARK   17  A    between atoms: _41  and  _42
REMARK   18  A    between atoms: _44  and  _46
REMARK   19  A    between atoms: _46  and  _47
REMARK   20  A    between atoms: _50  and  _52
REMARK   21  A    between atoms: _52  and  _53
REMARK   22  A    between atoms: _52  and  _55
REMARK   23  A    between atoms: _55  and  _56
REMARK   24  A    between atoms: _59  and  _61
REMARK   25  A    between atoms: _61  and  _62
REMARK   26  A    between atoms: _61  and  _64
REMARK   27  A    between atoms: _64  and  _65
REMARK   28  A    between atoms: _70  and  _71
REMARK   29  A    between atoms: _73  and  _75
REMARK   30  A    between atoms: _75  and  _76
REMARK   31  A    between atoms: _75  and  _78
REMARK   32  A    between atoms: _81  and  _83
REMARK   33  A    between atoms: _83  and  _84
REMARK   34  A    between atoms: _83  and  _86
REMARK   35  A    between atoms: _86  and  _87
REMARK   36  A    between atoms: _90  and  _92
REMARK   37  A    between atoms: _92  and  _93
REMARK   38  A    between atoms: _92  and  _95
REMARK   39  A    between atoms: _95  and  _96
REMARK   40  A    between atoms: _98  and  _100
REMARK   41  A    between atoms: _100  and  _101
REMARK   42  A    between atoms: _100  and  _103
REMARK   43  A    between atoms: _106  and  _108
REMARK   44  A    between atoms: _108  and  _109
REMARK   45  A    between atoms: _108  and  _111
REMARK   46  A    between atoms: _111  and  _112
REMARK   47  A    between atoms: _115  and  _117
REMARK   48  A    between atoms: _117  and  _118
REMARK   49  A    between atoms: _117  and  _120
REMARK   50  A    between atoms: _120  and  _121
REMARK   51  A    between atoms: _121  and  _122
REMARK   52  A    between atoms: _122  and  _123
REMARK   53  A    between atoms: _132  and  _134
REMARK   54  A    between atoms: _134  and  _135
REMARK   55  A    between atoms: _134  and  _137
REMARK   56  A    between atoms: _137  and  _138
REMARK   57  A    between atoms: _141  and  _143
REMARK   58  A    between atoms: _143  and  _144
REMARK   59  A    between atoms: _143  and  _146
REMARK   60  A    between atoms: _146  and  _147
REMARK   61  A    between atoms: _152  and  _153
REMARK   62  A    between atoms: _155  and  _157
REMARK   63  A    between atoms: _157  and  _158
REMARK   64  A    between atoms: _157  and  _160
REMARK   65  A    between atoms: _160  and  _161
REMARK   66  A    between atoms: _171  and  _173
REMARK   67  A    between atoms: _173  and  _174
REMARK   68  A    between atoms: _173  and  _176
REMARK   69  A    between atoms: _176  and  _177
REMARK   70  A    between atoms: _180  and  _182
REMARK   71  A    between atoms: _182  and  _183
REMARK   72  A    between atoms: _182  and  _185
REMARK   73  A    between atoms: _185  and  _186
REMARK   74  A    between atoms: _186  and  _187
REMARK   75  A    between atoms: _187  and  _188
REMARK   76  A    between atoms: _197  and  _199
REMARK   77  A    between atoms: _199  and  _200
REMARK   78  A    between atoms: _199  and  _202
REMARK   79  A    between atoms: _202  and  _203
REMARK   80  A    between atoms: _209  and  _211
REMARK   81  A    between atoms: _211  and  _212
REMARK   82  A    between atoms: _211  and  _214
REMARK   83  A    between atoms: _214  and  _215
REMARK   84  A    between atoms: _220  and  _221
REMARK   85  A    between atoms: _223  and  _225
REMARK   86  A    between atoms: _225  and  _226
REMARK   87  A    between atoms: _225  and  _228
REMARK   88  A    between atoms: _228  and  _229
REMARK   89  A    between atoms: _235  and  _237
REMARK   90  A    between atoms: _237  and  _238
REMARK   91  A    between atoms: _237  and  _240
REMARK   92  A    between atoms: _240  and  _241
REMARK   93  A    between atoms: _241  and  _242
REMARK   94  A    between atoms: _242  and  _243
REMARK   95  A    between atoms: _243  and  _244
REMARK   96  A    between atoms: _248  and  _250
REMARK   97  A    between atoms: _250  and  _251
REMARK   98  A    between atoms: _250  and  _253
REMARK   99  A    between atoms: _253  and  _254
REMARK  100  A    between atoms: _254  and  _255
REMARK  101  A    between atoms: _255  and  _256
REMARK  102  A    between atoms: _256  and  _257
REMARK  103  A    between atoms: _261  and  _263
REMARK  104  A    between atoms: _263  and  _264
REMARK  105  A    between atoms: _263  and  _266
REMARK  106  A    between atoms: _266  and  _267
REMARK  107  A    between atoms: _270  and  _272
REMARK  108  A    between atoms: _272  and  _273
REMARK  109  A    between atoms: _272  and  _275
REMARK  110  A    between atoms: _275  and  _276
REMARK  111  A    between atoms: _281  and  _282
REMARK                            x       y       z     vdW  Elec       q    Type
REMARK                         _______ _______ _______ _____ _____    ______ ____
ROOT
ATOM      1  CG  TYR A   1      21.367  76.398  61.087  0.00  0.00    +0.000 A 
ATOM      2  CD2 TYR A   1      22.344  77.016  61.810  0.00  0.00    +0.000 A 
ATOM      3  CE2 TYR A   1      23.698  76.642  61.645  0.00  0.00    +0.000 A 
ATOM      4  CZ  TYR A   1      24.021  75.621  60.732  0.00  0.00    +0.000 A 
ATOM      5  CE1 TYR A   1      23.056  75.021  60.026  0.00  0.00    +0.000 A 
ATOM      6  CD1 TYR A   1      21.738  75.401  60.195  0.00  0.00    +0.000 A 
ENDROOT
BRANCH   4   7
ATOM      7  OH  TYR A   1      25.297  75.173  60.541  0.00  0.00    +0.000 OA
ATOM      8  HH  TYR A   1      25.295  74.456  59.858  0.00  0.00    +0.000 HD
ENDBRANCH   4   7
BRANCH   1   9
ATOM      9  CB  TYR A   1      19.941  76.771  61.267  0.00  0.00    +0.000 C 
BRANCH   9  10
ATOM     10  CA  TYR A   1      19.446  77.706  60.195  0.00  0.00    +0.000 C 
BRANCH  10  11
ATOM     11  N   TYR A   1      18.209  78.366  60.632  0.00  0.00    +0.000 NA
ATOM     12  H   TYR A   1      17.291  78.003  60.304  0.00  0.00    +0.000 HD
ENDBRANCH  10  11
BRANCH  10  13
ATOM     13  C   TYR A   1      19.172  76.907  58.915  0.00  0.00    +0.000 C 
ATOM     14  O   TYR A   1      18.357  75.975  58.889  0.00  0.00    +0.000 OA
ENDBRANCH  10  13
ENDBRANCH   9  10
ENDBRANCH   1   9
TORSDOF 5
REMARK  Name = ../refined-set-2016/1l6m/1l6m_pocket.pdb
REMARK  111 active torsions:
REMARK  status: ('A' for Active; 'I' for Inactive)
REMARK    1  A    between atoms: _1  and  _3
REMARK    2  A    between atoms: _3  and  _4
REMARK    3  A    between atoms: _3  and  _6
REMARK    4  A    between atoms: _9  and  _11
REMARK    5  A    between atoms: _11  and  _12
REMARK    6  A    between atoms: _11  and  _14
REMARK    7  A    between atoms: _14  and  _15
REMARK    8  A    between atoms: _18  and  _20
REMARK    9  A    between atoms: _20  and  _21
REMARK   10  A    between atoms: _20  and  _23
REMARK   11  A    between atoms: _23  and  _24
REMARK   12  A    between atoms: _24  and  _25
REMARK   13  A    between atoms: _30  and  _32
REMARK   14  A    between atoms: _32  and  _33
REMARK   15  A    between atoms: _32  and  _35
REMARK   16  A    between atoms: _35  and  _36
REMARK   17  A    between atoms: _41  and  _42
REMARK   18  A    between atoms: _44  and  _46
REMARK   19  A    between atoms: _46  and  _47
REMARK   20  A    between atoms: _50  and  _52
REMARK   21  A    between atoms: _52  and  _53
REMARK   22  A    between atoms: _52  and  _55
REMARK   23  A    between atoms: _55  and  _56
REMARK   24  A    between atoms: _59  and  _61
REMARK   25  A    between atoms: _61  and  _62
REMARK   26  A    between atoms: _61  and  _64
REMARK   27  A    between atoms: _64  and  _65
REMARK   28  A    between atoms: _70  and  _71
REMARK   29  A    between atoms: _73  and  _75
REMARK   30  A    between atoms: _75  and  _76
REMARK   31  A    between atoms: _75  and  _78
REMARK   32  A    between atoms: _81  and  _83
REMARK   33  A    between atoms: _83  and  _84
REMARK   34  A    between atoms: _83  and  _86
REMARK   35  A    between atoms: _86  and  _87
REMARK   36  A    between atoms: _90  and  _92
REMARK   37  A    between atoms: _92  and  _93
REMARK   38  A    between atoms: _92  and  _95
REMARK   39  A    between atoms: _95  and  _96
REMARK   40  A    between atoms: _98  and  _100
REMARK   41  A    between atoms: _100  and  _101
REMARK   42  A    between atoms: _100  and  _103
REMARK   43  A    between atoms: _106  and  _108
REMARK   44  A    between atoms: _108  and  _109
REMARK   45  A    between atoms: _108  and  _111
REMARK   46  A    between atoms: _111  and  _112
REMARK   47  A    between atoms: _115  and  _117
REMARK   48  A    between atoms: _117  and  _118
REMARK   49  A    between atoms: _117  and  _120
REMARK   50  A    between atoms: _120  and  _121
REMARK   51  A    between atoms: _121  and  _122
REMARK   52  A    between atoms: _122  and  _123
REMARK   53  A    between atoms: _132  and  _134
REMARK   54  A    between atoms: _134  and  _135
REMARK   55  A    between atoms: _134  and  _137
REMARK   56  A    between atoms: _137  and  _138
REMARK   57  A    between atoms: _141  and  _143
REMARK   58  A    between atoms: _143  and  _144
REMARK   59  A    between atoms: _143  and  _146
REMARK   60  A    between atoms: _146  and  _147
REMARK   61  A    between atoms: _152  and  _153
REMARK   62  A    between atoms: _155  and  _157
REMARK   63  A    between atoms: _157  and  _158
REMARK   64  A    between atoms: _157  and  _160
REMARK   65  A    between atoms: _160  and  _161
REMARK   66  A    between atoms: _171  and  _173
REMARK   67  A    between atoms: _173  and  _174
REMARK   68  A    between atoms: _173  and  _176
REMARK   69  A    between atoms: _176  and  _177
REMARK   70  A    between atoms: _180  and  _182
REMARK   71  A    between atoms: _182  and  _183
REMARK   72  A    between atoms: _182  and  _185
REMARK   73  A    between atoms: _185  and  _186
REMARK   74  A    between atoms: _186  and  _187
REMARK   75  A    between atoms: _187  and  _188
REMARK   76  A    between atoms: _197  and  _199
REMARK   77  A    between atoms: _199  and  _200
REMARK   78  A    between atoms: _199  and  _202
REMARK   79  A    between atoms: _202  and  _203
REMARK   80  A    between atoms: _209  and  _211
REMARK   81  A    between atoms: _211  and  _212
REMARK   82  A    between atoms: _211  and  _214
REMARK   83  A    between atoms: _214  and  _215
REMARK   84  A    between atoms: _220  and  _221
REMARK   85  A    between atoms: _223  and  _225
REMARK   86  A    between atoms: _225  and  _226
REMARK   87  A    between atoms: _225  and  _228
REMARK   88  A    between atoms: _228  and  _229
REMARK   89  A    between atoms: _235  and  _237
REMARK   90  A    between atoms: _237  and  _238
REMARK   91  A    between atoms: _237  and  _240
REMARK   92  A    between atoms: _240  and  _241
REMARK   93  A    between atoms: _241  and  _242
REMARK   94  A    between atoms: _242  and  _243
REMARK   95  A    between atoms: _243  and  _244
REMARK   96  A    between atoms: _248  and  _250
REMARK   97  A    between atoms: _250  and  _251
REMARK   98  A    between atoms: _250  and  _253
REMARK   99  A    between atoms: _253  and  _254
REMARK  100  A    between atoms: _254  and  _255
REMARK  101  A    between atoms: _255  and  _256
REMARK  102  A    between atoms: _256  and  _257
REMARK  103  A    between atoms: _261  and  _263
REMARK  104  A    between atoms: _263  and  _264
REMARK  105  A    between atoms: _263  and  _266
REMARK  106  A    between atoms: _266  and  _267
REMARK  107  A    between atoms: _270  and  _272
REMARK  108  A    between atoms: _272  and  _273
REMARK  109  A    between atoms: _272  and  _275
REMARK  110  A    between atoms: _275  and  _276
REMARK  111  A    between atoms: _281  and  _282
REMARK                            x       y       z     vdW  Elec       q    Type
REMARK                         _______ _______ _______ _____ _____    ______ ____
ROOT
ATOM      1  CB  PHE A   1      25.817  77.684  56.435  0.00  0.00    +0.000 C 
ENDROOT
BRANCH   1   2
ATOM      2  CG  PHE A   1      26.500  76.352  56.230  0.00  0.00    +0.000 A 
ATOM      3  CD2 PHE A   1      26.121  75.247  56.998  0.00  0.00    +0.000 A 
ATOM      4  CE2 PHE A   1      26.834  74.031  56.933  0.00  0.00    +0.000 A 
ATOM      5  CZ  PHE A   1      27.942  73.899  56.083  0.00  0.00    +0.000 A 
ATOM      6  CE1 PHE A   1      28.319  75.006  55.301  0.00  0.00    +0.000 A 
ATOM      7  CD1 PHE A   1      27.599  76.219  55.378  0.00  0.00    +0.000 A 
ENDBRANCH   1   2
BRANCH   1   8
ATOM      8  CA  PHE A   1      24.924  78.111  55.318  0.00  0.00    +0.000 C 
BRANCH   8   9
ATOM      9  N   PHE A   1      25.619  78.076  54.039  0.00  0.00    +0.000 NA
ATOM     10  H   PHE A   1      26.420  78.720  53.876  0.00  0.00    +0.000 HD
ENDBRANCH   8   9
BRANCH   8  11
ATOM     11  C   PHE A   1      24.443  79.500  55.664  0.00  0.00    +0.000 C 
ATOM     12  O   PHE A   1      25.165  80.474  55.524  0.00  0.00    +0.000 OA
ENDBRANCH   8  11
ENDBRANCH   1   8
TORSDOF 4
REMARK  Name = ../refined-set-2016/1l6m/1l6m_pocket.pdb
REMARK  111 active torsions:
REMARK  status: ('A' for Active; 'I' for Inactive)
REMARK    1  A    between atoms: _1  and  _3
REMARK    2  A    between atoms: _3  and  _4
REMARK    3  A    between atoms: _3  and  _6
REMARK    4  A    between atoms: _9  and  _11
REMARK    5  A    between atoms: _11  and  _12
REMARK    6  A    between atoms: _11  and  _14
REMARK    7  A    between atoms: _14  and  _15
REMARK    8  A    between atoms: _18  and  _20
REMARK    9  A    between atoms: _20  and  _21
REMARK   10  A    between atoms: _20  and  _23
REMARK   11  A    between atoms: _23  and  _24
REMARK   12  A    between atoms: _24  and  _25
REMARK   13  A    between atoms: _30  and  _32
REMARK   14  A    between atoms: _32  and  _33
REMARK   15  A    between atoms: _32  and  _35
REMARK   16  A    between atoms: _35  and  _36
REMARK   17  A    between atoms: _41  and  _42
REMARK   18  A    between atoms: _44  and  _46
REMARK   19  A    between atoms: _46  and  _47
REMARK   20  A    between atoms: _50  and  _52
REMARK   21  A    between atoms: _52  and  _53
REMARK   22  A    between atoms: _52  and  _55
REMARK   23  A    between atoms: _55  and  _56
REMARK   24  A    between atoms: _59  and  _61
REMARK   25  A    between atoms: _61  and  _62
REMARK   26  A    between atoms: _61  and  _64
REMARK   27  A    between atoms: _64  and  _65
REMARK   28  A    between atoms: _70  and  _71
REMARK   29  A    between atoms: _73  and  _75
REMARK   30  A    between atoms: _75  and  _76
REMARK   31  A    between atoms: _75  and  _78
REMARK   32  A    between atoms: _81  and  _83
REMARK   33  A    between atoms: _83  and  _84
REMARK   34  A    between atoms: _83  and  _86
REMARK   35  A    between atoms: _86  and  _87
REMARK   36  A    between atoms: _90  and  _92
REMARK   37  A    between atoms: _92  and  _93
REMARK   38  A    between atoms: _92  and  _95
REMARK   39  A    between atoms: _95  and  _96
REMARK   40  A    between atoms: _98  and  _100
REMARK   41  A    between atoms: _100  and  _101
REMARK   42  A    between atoms: _100  and  _103
REMARK   43  A    between atoms: _106  and  _108
REMARK   44  A    between atoms: _108  and  _109
REMARK   45  A    between atoms: _108  and  _111
REMARK   46  A    between atoms: _111  and  _112
REMARK   47  A    between atoms: _115  and  _117
REMARK   48  A    between atoms: _117  and  _118
REMARK   49  A    between atoms: _117  and  _120
REMARK   50  A    between atoms: _120  and  _121
REMARK   51  A    between atoms: _121  and  _122
REMARK   52  A    between atoms: _122  and  _123
REMARK   53  A    between atoms: _132  and  _134
REMARK   54  A    between atoms: _134  and  _135
REMARK   55  A    between atoms: _134  and  _137
REMARK   56  A    between atoms: _137  and  _138
REMARK   57  A    between atoms: _141  and  _143
REMARK   58  A    between atoms: _143  and  _144
REMARK   59  A    between atoms: _143  and  _146
REMARK   60  A    between atoms: _146  and  _147
REMARK   61  A    between atoms: _152  and  _153
REMARK   62  A    between atoms: _155  and  _157
REMARK   63  A    between atoms: _157  and  _158
REMARK   64  A    between atoms: _157  and  _160
REMARK   65  A    between atoms: _160  and  _161
REMARK   66  A    between atoms: _171  and  _173
REMARK   67  A    between atoms: _173  and  _174
REMARK   68  A    between atoms: _173  and  _176
REMARK   69  A    between atoms: _176  and  _177
REMARK   70  A    between atoms: _180  and  _182
REMARK   71  A    between atoms: _182  and  _183
REMARK   72  A    between atoms: _182  and  _185
REMARK   73  A    between atoms: _185  and  _186
REMARK   74  A    between atoms: _186  and  _187
REMARK   75  A    between atoms: _187  and  _188
REMARK   76  A    between atoms: _197  and  _199
REMARK   77  A    between atoms: _199  and  _200
REMARK   78  A    between atoms: _199  and  _202
REMARK   79  A    between atoms: _202  and  _203
REMARK   80  A    between atoms: _209  and  _211
REMARK   81  A    between atoms: _211  and  _212
REMARK   82  A    between atoms: _211  and  _214
REMARK   83  A    between atoms: _214  and  _215
REMARK   84  A    between atoms: _220  and  _221
REMARK   85  A    between atoms: _223  and  _225
REMARK   86  A    between atoms: _225  and  _226
REMARK   87  A    between atoms: _225  and  _228
REMARK   88  A    between atoms: _228  and  _229
REMARK   89  A    between atoms: _235  and  _237
REMARK   90  A    between atoms: _237  and  _238
REMARK   91  A    between atoms: _237  and  _240
REMARK   92  A    between atoms: _240  and  _241
REMARK   93  A    between atoms: _241  and  _242
REMARK   94  A    between atoms: _242  and  _243
REMARK   95  A    between atoms: _243  and  _244
REMARK   96  A    between atoms: _248  and  _250
REMARK   97  A    between atoms: _250  and  _251
REMARK   98  A    between atoms: _250  and  _253
REMARK   99  A    between atoms: _253  and  _254
REMARK  100  A    between atoms: _254  and  _255
REMARK  101  A    between atoms: _255  and  _256
REMARK  102  A    between atoms: _256  and  _257
REMARK  103  A    between atoms: _261  and  _263
REMARK  104  A    between atoms: _263  and  _264
REMARK  105  A    between atoms: _263  and  _266
REMARK  106  A    between atoms: _266  and  _267
REMARK  107  A    between atoms: _270  and  _272
REMARK  108  A    between atoms: _272  and  _273
REMARK  109  A    between atoms: _272  and  _275
REMARK  110  A    between atoms: _275  and  _276
REMARK  111  A    between atoms: _281  and  _282
REMARK                            x       y       z     vdW  Elec       q    Type
REMARK                         _______ _______ _______ _____ _____    ______ ____
ROOT
ATOM      1  CG  LYS A   1      23.654  81.216  61.688  0.00  0.00    +0.000 C 
ENDROOT
BRANCH   1   2
ATOM      2  CB  LYS A   1      22.503  80.389  61.224  0.00  0.00    +0.000 C 
BRANCH   2   3
ATOM      3  CA  LYS A   1      21.600  81.177  60.231  0.00  0.00    +0.000 C 
BRANCH   3   4
ATOM      4  N   LYS A   1      22.278  81.421  58.945  0.00  0.00    +0.000 NA
ATOM      5  H   LYS A   1      22.964  82.197  58.851  0.00  0.00    +0.000 HD
ENDBRANCH   3   4
BRANCH   3   6
ATOM      6  C   LYS A   1      21.293  82.513  60.866  0.00  0.00    +0.000 C 
ATOM      7  O   LYS A   1      22.065  83.471  60.658  0.00  0.00    +0.000 OA
ENDBRANCH   3   6
ENDBRANCH   2   3
ENDBRANCH   1   2
BRANCH   1   8
ATOM      8  CD  LYS A   1      24.537  80.646  62.805  0.00  0.00    +0.000 C 
BRANCH   8   9
ATOM      9  CE  LYS A   1      25.766  81.522  62.898  0.00  0.00    +0.000 C 
BRANCH   9  10
ATOM     10  NZ  LYS A   1      26.940  81.059  63.709  0.00  0.00    +0.000 N 
ATOM     11  HZ1 LYS A   1      26.645  80.923  64.697  0.00  0.00    +0.000 HD
ATOM     12  HZ2 LYS A   1      27.693  81.775  63.666  0.00  0.00    +0.000 HD
ATOM     13  HZ3 LYS A   1      27.293  80.160  63.324  0.00  0.00    +0.000 HD
ENDBRANCH   9  10
ENDBRANCH   8   9
ENDBRANCH   1   8
TORSDOF 7
REMARK  Name = ../refined-set-2016/1l6m/1l6m_pocket.pdb
REMARK  111 active torsions:
REMARK  status: ('A' for Active; 'I' for Inactive)
REMARK    1  A    between atoms: _1  and  _3
REMARK    2  A    between atoms: _3  and  _4
REMARK    3  A    between atoms: _3  and  _6
REMARK    4  A    between atoms: _9  and  _11
REMARK    5  A    between atoms: _11  and  _12
REMARK    6  A    between atoms: _11  and  _14
REMARK    7  A    between atoms: _14  and  _15
REMARK    8  A    between atoms: _18  and  _20
REMARK    9  A    between atoms: _20  and  _21
REMARK   10  A    between atoms: _20  and  _23
REMARK   11  A    between atoms: _23  and  _24
REMARK   12  A    between atoms: _24  and  _25
REMARK   13  A    between atoms: _30  and  _32
REMARK   14  A    between atoms: _32  and  _33
REMARK   15  A    between atoms: _32  and  _35
REMARK   16  A    between atoms: _35  and  _36
REMARK   17  A    between atoms: _41  and  _42
REMARK   18  A    between atoms: _44  and  _46
REMARK   19  A    between atoms: _46  and  _47
REMARK   20  A    between atoms: _50  and  _52
REMARK   21  A    between atoms: _52  and  _53
REMARK   22  A    between atoms: _52  and  _55
REMARK   23  A    between atoms: _55  and  _56
REMARK   24  A    between atoms: _59  and  _61
REMARK   25  A    between atoms: _61  and  _62
REMARK   26  A    between atoms: _61  and  _64
REMARK   27  A    between atoms: _64  and  _65
REMARK   28  A    between atoms: _70  and  _71
REMARK   29  A    between atoms: _73  and  _75
REMARK   30  A    between atoms: _75  and  _76
REMARK   31  A    between atoms: _75  and  _78
REMARK   32  A    between atoms: _81  and  _83
REMARK   33  A    between atoms: _83  and  _84
REMARK   34  A    between atoms: _83  and  _86
REMARK   35  A    between atoms: _86  and  _87
REMARK   36  A    between atoms: _90  and  _92
REMARK   37  A    between atoms: _92  and  _93
REMARK   38  A    between atoms: _92  and  _95
REMARK   39  A    between atoms: _95  and  _96
REMARK   40  A    between atoms: _98  and  _100
REMARK   41  A    between atoms: _100  and  _101
REMARK   42  A    between atoms: _100  and  _103
REMARK   43  A    between atoms: _106  and  _108
REMARK   44  A    between atoms: _108  and  _109
REMARK   45  A    between atoms: _108  and  _111
REMARK   46  A    between atoms: _111  and  _112
REMARK   47  A    between atoms: _115  and  _117
REMARK   48  A    between atoms: _117  and  _118
REMARK   49  A    between atoms: _117  and  _120
REMARK   50  A    between atoms: _120  and  _121
REMARK   51  A    between atoms: _121  and  _122
REMARK   52  A    between atoms: _122  and  _123
REMARK   53  A    between atoms: _132  and  _134
REMARK   54  A    between atoms: _134  and  _135
REMARK   55  A    between atoms: _134  and  _137
REMARK   56  A    between atoms: _137  and  _138
REMARK   57  A    between atoms: _141  and  _143
REMARK   58  A    between atoms: _143  and  _144
REMARK   59  A    between atoms: _143  and  _146
REMARK   60  A    between atoms: _146  and  _147
REMARK   61  A    between atoms: _152  and  _153
REMARK   62  A    between atoms: _155  and  _157
REMARK   63  A    between atoms: _157  and  _158
REMARK   64  A    between atoms: _157  and  _160
REMARK   65  A    between atoms: _160  and  _161
REMARK   66  A    between atoms: _171  and  _173
REMARK   67  A    between atoms: _173  and  _174
REMARK   68  A    between atoms: _173  and  _176
REMARK   69  A    between atoms: _176  and  _177
REMARK   70  A    between atoms: _180  and  _182
REMARK   71  A    between atoms: _182  and  _183
REMARK   72  A    between atoms: _182  and  _185
REMARK   73  A    between atoms: _185  and  _186
REMARK   74  A    between atoms: _186  and  _187
REMARK   75  A    between atoms: _187  and  _188
REMARK   76  A    between atoms: _197  and  _199
REMARK   77  A    between atoms: _199  and  _200
REMARK   78  A    between atoms: _199  and  _202
REMARK   79  A    between atoms: _202  and  _203
REMARK   80  A    between atoms: _209  and  _211
REMARK   81  A    between atoms: _211  and  _212
REMARK   82  A    between atoms: _211  and  _214
REMARK   83  A    between atoms: _214  and  _215
REMARK   84  A    between atoms: _220  and  _221
REMARK   85  A    between atoms: _223  and  _225
REMARK   86  A    between atoms: _225  and  _226
REMARK   87  A    between atoms: _225  and  _228
REMARK   88  A    between atoms: _228  and  _229
REMARK   89  A    between atoms: _235  and  _237
REMARK   90  A    between atoms: _237  and  _238
REMARK   91  A    between atoms: _237  and  _240
REMARK   92  A    between atoms: _240  and  _241
REMARK   93  A    between atoms: _241  and  _242
REMARK   94  A    between atoms: _242  and  _243
REMARK   95  A    between atoms: _243  and  _244
REMARK   96  A    between atoms: _248  and  _250
REMARK   97  A    between atoms: _250  and  _251
REMARK   98  A    between atoms: _250  and  _253
REMARK   99  A    between atoms: _253  and  _254
REMARK  100  A    between atoms: _254  and  _255
REMARK  101  A    between atoms: _255  and  _256
REMARK  102  A    between atoms: _256  and  _257
REMARK  103  A    between atoms: _261  and  _263
REMARK  104  A    between atoms: _263  and  _264
REMARK  105  A    between atoms: _263  and  _266
REMARK  106  A    between atoms: _266  and  _267
REMARK  107  A    between atoms: _270  and  _272
REMARK  108  A    between atoms: _272  and  _273
REMARK  109  A    between atoms: _272  and  _275
REMARK  110  A    between atoms: _275  and  _276
REMARK  111  A    between atoms: _281  and  _282
REMARK                            x       y       z     vdW  Elec       q    Type
REMARK                         _______ _______ _______ _____ _____    ______ ____
ROOT
ATOM      1  CG  LYS A   1      29.378  79.434  56.799  0.00  0.00    +0.000 C 
ENDROOT
BRANCH   1   2
ATOM      2  CB  LYS A   1      29.793  80.769  56.316  0.00  0.00    +0.000 C 
BRANCH   2   3
ATOM      3  CA  LYS A   1      29.035  81.273  55.083  0.00  0.00    +0.000 C 
BRANCH   3   4
ATOM      4  N   LYS A   1      27.691  81.666  55.464  0.00  0.00    +0.000 NA
ATOM      5  H   LYS A   1      26.907  80.985  55.405  0.00  0.00    +0.000 HD
ENDBRANCH   3   4
BRANCH   3   6
ATOM      6  C   LYS A   1      29.015  80.243  53.951  0.00  0.00    +0.000 C 
ATOM      7  O   LYS A   1      27.976  79.669  53.644  0.00  0.00    +0.000 OA
ENDBRANCH   3   6
ENDBRANCH   2   3
ENDBRANCH   1   2
BRANCH   1   8
ATOM      8  CD  LYS A   1      30.273  78.983  57.971  0.00  0.00    +0.000 C 
BRANCH   8   9
ATOM      9  CE  LYS A   1      30.029  77.517  58.301  0.00  0.00    +0.000 C 
BRANCH   9  10
ATOM     10  NZ  LYS A   1      30.117  77.286  59.785  0.00  0.00    +0.000 N 
ATOM     11  HZ1 LYS A   1      29.400  77.864  60.268  0.00  0.00    +0.000 HD
ATOM     12  HZ2 LYS A   1      31.064  77.554  60.121  0.00  0.00    +0.000 HD
ATOM     13  HZ3 LYS A   1      29.948  76.280  59.989  0.00  0.00    +0.000 HD
ENDBRANCH   9  10
ENDBRANCH   8   9
ENDBRANCH   1   8
TORSDOF 7
REMARK  Name = ../refined-set-2016/1l6m/1l6m_pocket.pdb
REMARK  111 active torsions:
REMARK  status: ('A' for Active; 'I' for Inactive)
REMARK    1  A    between atoms: _1  and  _3
REMARK    2  A    between atoms: _3  and  _4
REMARK    3  A    between atoms: _3  and  _6
REMARK    4  A    between atoms: _9  and  _11
REMARK    5  A    between atoms: _11  and  _12
REMARK    6  A    between atoms: _11  and  _14
REMARK    7  A    between atoms: _14  and  _15
REMARK    8  A    between atoms: _18  and  _20
REMARK    9  A    between atoms: _20  and  _21
REMARK   10  A    between atoms: _20  and  _23
REMARK   11  A    between atoms: _23  and  _24
REMARK   12  A    between atoms: _24  and  _25
REMARK   13  A    between atoms: _30  and  _32
REMARK   14  A    between atoms: _32  and  _33
REMARK   15  A    between atoms: _32  and  _35
REMARK   16  A    between atoms: _35  and  _36
REMARK   17  A    between atoms: _41  and  _42
REMARK   18  A    between atoms: _44  and  _46
REMARK   19  A    between atoms: _46  and  _47
REMARK   20  A    between atoms: _50  and  _52
REMARK   21  A    between atoms: _52  and  _53
REMARK   22  A    between atoms: _52  and  _55
REMARK   23  A    between atoms: _55  and  _56
REMARK   24  A    between atoms: _59  and  _61
REMARK   25  A    between atoms: _61  and  _62
REMARK   26  A    between atoms: _61  and  _64
REMARK   27  A    between atoms: _64  and  _65
REMARK   28  A    between atoms: _70  and  _71
REMARK   29  A    between atoms: _73  and  _75
REMARK   30  A    between atoms: _75  and  _76
REMARK   31  A    between atoms: _75  and  _78
REMARK   32  A    between atoms: _81  and  _83
REMARK   33  A    between atoms: _83  and  _84
REMARK   34  A    between atoms: _83  and  _86
REMARK   35  A    between atoms: _86  and  _87
REMARK   36  A    between atoms: _90  and  _92
REMARK   37  A    between atoms: _92  and  _93
REMARK   38  A    between atoms: _92  and  _95
REMARK   39  A    between atoms: _95  and  _96
REMARK   40  A    between atoms: _98  and  _100
REMARK   41  A    between atoms: _100  and  _101
REMARK   42  A    between atoms: _100  and  _103
REMARK   43  A    between atoms: _106  and  _108
REMARK   44  A    between atoms: _108  and  _109
REMARK   45  A    between atoms: _108  and  _111
REMARK   46  A    between atoms: _111  and  _112
REMARK   47  A    between atoms: _115  and  _117
REMARK   48  A    between atoms: _117  and  _118
REMARK   49  A    between atoms: _117  and  _120
REMARK   50  A    between atoms: _120  and  _121
REMARK   51  A    between atoms: _121  and  _122
REMARK   52  A    between atoms: _122  and  _123
REMARK   53  A    between atoms: _132  and  _134
REMARK   54  A    between atoms: _134  and  _135
REMARK   55  A    between atoms: _134  and  _137
REMARK   56  A    between atoms: _137  and  _138
REMARK   57  A    between atoms: _141  and  _143
REMARK   58  A    between atoms: _143  and  _144
REMARK   59  A    between atoms: _143  and  _146
REMARK   60  A    between atoms: _146  and  _147
REMARK   61  A    between atoms: _152  and  _153
REMARK   62  A    between atoms: _155  and  _157
REMARK   63  A    between atoms: _157  and  _158
REMARK   64  A    between atoms: _157  and  _160
REMARK   65  A    between atoms: _160  and  _161
REMARK   66  A    between atoms: _171  and  _173
REMARK   67  A    between atoms: _173  and  _174
REMARK   68  A    between atoms: _173  and  _176
REMARK   69  A    between atoms: _176  and  _177
REMARK   70  A    between atoms: _180  and  _182
REMARK   71  A    between atoms: _182  and  _183
REMARK   72  A    between atoms: _182  and  _185
REMARK   73  A    between atoms: _185  and  _186
REMARK   74  A    between atoms: _186  and  _187
REMARK   75  A    between atoms: _187  and  _188
REMARK   76  A    between atoms: _197  and  _199
REMARK   77  A    between atoms: _199  and  _200
REMARK   78  A    between atoms: _199  and  _202
REMARK   79  A    between atoms: _202  and  _203
REMARK   80  A    between atoms: _209  and  _211
REMARK   81  A    between atoms: _211  and  _212
REMARK   82  A    between atoms: _211  and  _214
REMARK   83  A    between atoms: _214  and  _215
REMARK   84  A    between atoms: _220  and  _221
REMARK   85  A    between atoms: _223  and  _225
REMARK   86  A    between atoms: _225  and  _226
REMARK   87  A    between atoms: _225  and  _228
REMARK   88  A    between atoms: _228  and  _229
REMARK   89  A    between atoms: _235  and  _237
REMARK   90  A    between atoms: _237  and  _238
REMARK   91  A    between atoms: _237  and  _240
REMARK   92  A    between atoms: _240  and  _241
REMARK   93  A    between atoms: _241  and  _242
REMARK   94  A    between atoms: _242  and  _243
REMARK   95  A    between atoms: _243  and  _244
REMARK   96  A    between atoms: _248  and  _250
REMARK   97  A    between atoms: _250  and  _251
REMARK   98  A    between atoms: _250  and  _253
REMARK   99  A    between atoms: _253  and  _254
REMARK  100  A    between atoms: _254  and  _255
REMARK  101  A    between atoms: _255  and  _256
REMARK  102  A    between atoms: _256  and  _257
REMARK  103  A    between atoms: _261  and  _263
REMARK  104  A    between atoms: _263  and  _264
REMARK  105  A    between atoms: _263  and  _266
REMARK  106  A    between atoms: _266  and  _267
REMARK  107  A    between atoms: _270  and  _272
REMARK  108  A    between atoms: _272  and  _273
REMARK  109  A    between atoms: _272  and  _275
REMARK  110  A    between atoms: _275  and  _276
REMARK  111  A    between atoms: _281  and  _282
REMARK                            x       y       z     vdW  Elec       q    Type
REMARK                         _______ _______ _______ _____ _____    ______ ____
ROOT
ATOM      1  CA  THR A   1      32.683  76.177  52.766  0.00  0.00    +0.000 C 
ENDROOT
BRANCH   1   2
ATOM      2  N   THR A   1      31.472  76.925  52.481  0.00  0.00    +0.000 NA
ATOM      3  H   THR A   1      30.600  76.445  52.179  0.00  0.00    +0.000 HD
ENDBRANCH   1   2
BRANCH   1   4
ATOM      4  CB  THR A   1      32.510  75.204  53.977  0.00  0.00    +0.000 C 
ATOM      5  CG2 THR A   1      31.862  75.875  55.093  0.00  0.00    +0.000 C 
BRANCH   4   6
ATOM      6  OG1 THR A   1      31.581  74.185  53.632  0.00  0.00    +0.000 OA
ATOM      7  HG1 THR A   1      31.470  73.568  54.398  0.00  0.00    +0.000 HD
ENDBRANCH   4   6
ENDBRANCH   1   4
BRANCH   1   8
ATOM      8  C   THR A   1      33.013  75.425  51.482  0.00  0.00    +0.000 C 
ATOM      9  O   THR A   1      32.121  75.123  50.662  0.00  0.00    +0.000 OA
ENDBRANCH   1   8
TORSDOF 4
REMARK  Name = ../refined-set-2016/1l6m/1l6m_pocket.pdb
REMARK  111 active torsions:
REMARK  status: ('A' for Active; 'I' for Inactive)
REMARK    1  A    between atoms: _1  and  _3
REMARK    2  A    between atoms: _3  and  _4
REMARK    3  A    between atoms: _3  and  _6
REMARK    4  A    between atoms: _9  and  _11
REMARK    5  A    between atoms: _11  and  _12
REMARK    6  A    between atoms: _11  and  _14
REMARK    7  A    between atoms: _14  and  _15
REMARK    8  A    between atoms: _18  and  _20
REMARK    9  A    between atoms: _20  and  _21
REMARK   10  A    between atoms: _20  and  _23
REMARK   11  A    between atoms: _23  and  _24
REMARK   12  A    between atoms: _24  and  _25
REMARK   13  A    between atoms: _30  and  _32
REMARK   14  A    between atoms: _32  and  _33
REMARK   15  A    between atoms: _32  and  _35
REMARK   16  A    between atoms: _35  and  _36
REMARK   17  A    between atoms: _41  and  _42
REMARK   18  A    between atoms: _44  and  _46
REMARK   19  A    between atoms: _46  and  _47
REMARK   20  A    between atoms: _50  and  _52
REMARK   21  A    between atoms: _52  and  _53
REMARK   22  A    between atoms: _52  and  _55
REMARK   23  A    between atoms: _55  and  _56
REMARK   24  A    between atoms: _59  and  _61
REMARK   25  A    between atoms: _61  and  _62
REMARK   26  A    between atoms: _61  and  _64
REMARK   27  A    between atoms: _64  and  _65
REMARK   28  A    between atoms: _70  and  _71
REMARK   29  A    between atoms: _73  and  _75
REMARK   30  A    between atoms: _75  and  _76
REMARK   31  A    between atoms: _75  and  _78
REMARK   32  A    between atoms: _81  and  _83
REMARK   33  A    between atoms: _83  and  _84
REMARK   34  A    between atoms: _83  and  _86
REMARK   35  A    between atoms: _86  and  _87
REMARK   36  A    between atoms: _90  and  _92
REMARK   37  A    between atoms: _92  and  _93
REMARK   38  A    between atoms: _92  and  _95
REMARK   39  A    between atoms: _95  and  _96
REMARK   40  A    between atoms: _98  and  _100
REMARK   41  A    between atoms: _100  and  _101
REMARK   42  A    between atoms: _100  and  _103
REMARK   43  A    between atoms: _106  and  _108
REMARK   44  A    between atoms: _108  and  _109
REMARK   45  A    between atoms: _108  and  _111
REMARK   46  A    between atoms: _111  and  _112
REMARK   47  A    between atoms: _115  and  _117
REMARK   48  A    between atoms: _117  and  _118
REMARK   49  A    between atoms: _117  and  _120
REMARK   50  A    between atoms: _120  and  _121
REMARK   51  A    between atoms: _121  and  _122
REMARK   52  A    between atoms: _122  and  _123
REMARK   53  A    between atoms: _132  and  _134
REMARK   54  A    between atoms: _134  and  _135
REMARK   55  A    between atoms: _134  and  _137
REMARK   56  A    between atoms: _137  and  _138
REMARK   57  A    between atoms: _141  and  _143
REMARK   58  A    between atoms: _143  and  _144
REMARK   59  A    between atoms: _143  and  _146
REMARK   60  A    between atoms: _146  and  _147
REMARK   61  A    between atoms: _152  and  _153
REMARK   62  A    between atoms: _155  and  _157
REMARK   63  A    between atoms: _157  and  _158
REMARK   64  A    between atoms: _157  and  _160
REMARK   65  A    between atoms: _160  and  _161
REMARK   66  A    between atoms: _171  and  _173
REMARK   67  A    between atoms: _173  and  _174
REMARK   68  A    between atoms: _173  and  _176
REMARK   69  A    between atoms: _176  and  _177
REMARK   70  A    between atoms: _180  and  _182
REMARK   71  A    between atoms: _182  and  _183
REMARK   72  A    between atoms: _182  and  _185
REMARK   73  A    between atoms: _185  and  _186
REMARK   74  A    between atoms: _186  and  _187
REMARK   75  A    between atoms: _187  and  _188
REMARK   76  A    between atoms: _197  and  _199
REMARK   77  A    between atoms: _199  and  _200
REMARK   78  A    between atoms: _199  and  _202
REMARK   79  A    between atoms: _202  and  _203
REMARK   80  A    between atoms: _209  and  _211
REMARK   81  A    between atoms: _211  and  _212
REMARK   82  A    between atoms: _211  and  _214
REMARK   83  A    between atoms: _214  and  _215
REMARK   84  A    between atoms: _220  and  _221
REMARK   85  A    between atoms: _223  and  _225
REMARK   86  A    between atoms: _225  and  _226
REMARK   87  A    between atoms: _225  and  _228
REMARK   88  A    between atoms: _228  and  _229
REMARK   89  A    between atoms: _235  and  _237
REMARK   90  A    between atoms: _237  and  _238
REMARK   91  A    between atoms: _237  and  _240
REMARK   92  A    between atoms: _240  and  _241
REMARK   93  A    between atoms: _241  and  _242
REMARK   94  A    between atoms: _242  and  _243
REMARK   95  A    between atoms: _243  and  _244
REMARK   96  A    between atoms: _248  and  _250
REMARK   97  A    between atoms: _250  and  _251
REMARK   98  A    between atoms: _250  and  _253
REMARK   99  A    between atoms: _253  and  _254
REMARK  100  A    between atoms: _254  and  _255
REMARK  101  A    between atoms: _255  and  _256
REMARK  102  A    between atoms: _256  and  _257
REMARK  103  A    between atoms: _261  and  _263
REMARK  104  A    between atoms: _263  and  _264
REMARK  105  A    between atoms: _263  and  _266
REMARK  106  A    between atoms: _266  and  _267
REMARK  107  A    between atoms: _270  and  _272
REMARK  108  A    between atoms: _272  and  _273
REMARK  109  A    between atoms: _272  and  _275
REMARK  110  A    between atoms: _275  and  _276
REMARK  111  A    between atoms: _281  and  _282
REMARK                            x       y       z     vdW  Elec       q    Type
REMARK                         _______ _______ _______ _____ _____    ______ ____
ROOT
ATOM      1  CG  TYR A   1      32.861  70.397  52.626  0.00  0.00    +0.000 A 
ATOM      2  CD2 TYR A   1      33.381  71.083  53.740  0.00  0.00    +0.000 A 
ATOM      3  CE2 TYR A   1      32.528  71.359  54.890  0.00  0.00    +0.000 A 
ATOM      4  CZ  TYR A   1      31.178  70.924  54.831  0.00  0.00    +0.000 A 
ATOM      5  CE1 TYR A   1      30.714  70.293  53.729  0.00  0.00    +0.000 A 
ATOM      6  CD1 TYR A   1      31.539  70.026  52.646  0.00  0.00    +0.000 A 
ENDROOT
BRANCH   4   7
ATOM      7  OH  TYR A   1      30.283  70.981  55.862  0.00  0.00    +0.000 OA
ATOM      8  HH  TYR A   1      30.037  70.062  56.135  0.00  0.00    +0.000 HD
ENDBRANCH   4   7
BRANCH   1   9
ATOM      9  CB  TYR A   1      33.735  69.933  51.510  0.00  0.00    +0.000 C 
BRANCH   9  10
ATOM     10  CA  TYR A   1      34.951  70.812  51.178  0.00  0.00    +0.000 C 
BRANCH  10  11
ATOM     11  N   TYR A   1      34.566  72.081  50.575  0.00  0.00    +0.000 NA
ATOM     12  H   TYR A   1      33.724  72.120  49.966  0.00  0.00    +0.000 HD
ENDBRANCH  10  11
BRANCH  10  13
ATOM     13  C   TYR A   1      35.805  70.021  50.210  0.00  0.00    +0.000 C 
ATOM     14  O   TYR A   1      35.515  69.951  49.026  0.00  0.00    +0.000 OA
ENDBRANCH  10  13
ENDBRANCH   9  10
ENDBRANCH   1   9
TORSDOF 5
REMARK  Name = ../refined-set-2016/1l6m/1l6m_pocket.pdb
REMARK  111 active torsions:
REMARK  status: ('A' for Active; 'I' for Inactive)
REMARK    1  A    between atoms: _1  and  _3
REMARK    2  A    between atoms: _3  and  _4
REMARK    3  A    between atoms: _3  and  _6
REMARK    4  A    between atoms: _9  and  _11
REMARK    5  A    between atoms: _11  and  _12
REMARK    6  A    between atoms: _11  and  _14
REMARK    7  A    between atoms: _14  and  _15
REMARK    8  A    between atoms: _18  and  _20
REMARK    9  A    between atoms: _20  and  _21
REMARK   10  A    between atoms: _20  and  _23
REMARK   11  A    between atoms: _23  and  _24
REMARK   12  A    between atoms: _24  and  _25
REMARK   13  A    between atoms: _30  and  _32
REMARK   14  A    between atoms: _32  and  _33
REMARK   15  A    between atoms: _32  and  _35
REMARK   16  A    between atoms: _35  and  _36
REMARK   17  A    between atoms: _41  and  _42
REMARK   18  A    between atoms: _44  and  _46
REMARK   19  A    between atoms: _46  and  _47
REMARK   20  A    between atoms: _50  and  _52
REMARK   21  A    between atoms: _52  and  _53
REMARK   22  A    between atoms: _52  and  _55
REMARK   23  A    between atoms: _55  and  _56
REMARK   24  A    between atoms: _59  and  _61
REMARK   25  A    between atoms: _61  and  _62
REMARK   26  A    between atoms: _61  and  _64
REMARK   27  A    between atoms: _64  and  _65
REMARK   28  A    between atoms: _70  and  _71
REMARK   29  A    between atoms: _73  and  _75
REMARK   30  A    between atoms: _75  and  _76
REMARK   31  A    between atoms: _75  and  _78
REMARK   32  A    between atoms: _81  and  _83
REMARK   33  A    between atoms: _83  and  _84
REMARK   34  A    between atoms: _83  and  _86
REMARK   35  A    between atoms: _86  and  _87
REMARK   36  A    between atoms: _90  and  _92
REMARK   37  A    between atoms: _92  and  _93
REMARK   38  A    between atoms: _92  and  _95
REMARK   39  A    between atoms: _95  and  _96
REMARK   40  A    between atoms: _98  and  _100
REMARK   41  A    between atoms: _100  and  _101
REMARK   42  A    between atoms: _100  and  _103
REMARK   43  A    between atoms: _106  and  _108
REMARK   44  A    between atoms: _108  and  _109
REMARK   45  A    between atoms: _108  and  _111
REMARK   46  A    between atoms: _111  and  _112
REMARK   47  A    between atoms: _115  and  _117
REMARK   48  A    between atoms: _117  and  _118
REMARK   49  A    between atoms: _117  and  _120
REMARK   50  A    between atoms: _120  and  _121
REMARK   51  A    between atoms: _121  and  _122
REMARK   52  A    between atoms: _122  and  _123
REMARK   53  A    between atoms: _132  and  _134
REMARK   54  A    between atoms: _134  and  _135
REMARK   55  A    between atoms: _134  and  _137
REMARK   56  A    between atoms: _137  and  _138
REMARK   57  A    between atoms: _141  and  _143
REMARK   58  A    between atoms: _143  and  _144
REMARK   59  A    between atoms: _143  and  _146
REMARK   60  A    between atoms: _146  and  _147
REMARK   61  A    between atoms: _152  and  _153
REMARK   62  A    between atoms: _155  and  _157
REMARK   63  A    between atoms: _157  and  _158
REMARK   64  A    between atoms: _157  and  _160
REMARK   65  A    between atoms: _160  and  _161
REMARK   66  A    between atoms: _171  and  _173
REMARK   67  A    between atoms: _173  and  _174
REMARK   68  A    between atoms: _173  and  _176
REMARK   69  A    between atoms: _176  and  _177
REMARK   70  A    between atoms: _180  and  _182
REMARK   71  A    between atoms: _182  and  _183
REMARK   72  A    between atoms: _182  and  _185
REMARK   73  A    between atoms: _185  and  _186
REMARK   74  A    between atoms: _186  and  _187
REMARK   75  A    between atoms: _187  and  _188
REMARK   76  A    between atoms: _197  and  _199
REMARK   77  A    between atoms: _199  and  _200
REMARK   78  A    between atoms: _199  and  _202
REMARK   79  A    between atoms: _202  and  _203
REMARK   80  A    between atoms: _209  and  _211
REMARK   81  A    between atoms: _211  and  _212
REMARK   82  A    between atoms: _211  and  _214
REMARK   83  A    between atoms: _214  and  _215
REMARK   84  A    between atoms: _220  and  _221
REMARK   85  A    between atoms: _223  and  _225
REMARK   86  A    between atoms: _225  and  _226
REMARK   87  A    between atoms: _225  and  _228
REMARK   88  A    between atoms: _228  and  _229
REMARK   89  A    between atoms: _235  and  _237
REMARK   90  A    between atoms: _237  and  _238
REMARK   91  A    between atoms: _237  and  _240
REMARK   92  A    between atoms: _240  and  _241
REMARK   93  A    between atoms: _241  and  _242
REMARK   94  A    between atoms: _242  and  _243
REMARK   95  A    between atoms: _243  and  _244
REMARK   96  A    between atoms: _248  and  _250
REMARK   97  A    between atoms: _250  and  _251
REMARK   98  A    between atoms: _250  and  _253
REMARK   99  A    between atoms: _253  and  _254
REMARK  100  A    between atoms: _254  and  _255
REMARK  101  A    between atoms: _255  and  _256
REMARK  102  A    between atoms: _256  and  _257
REMARK  103  A    between atoms: _261  and  _263
REMARK  104  A    between atoms: _263  and  _264
REMARK  105  A    between atoms: _263  and  _266
REMARK  106  A    between atoms: _266  and  _267
REMARK  107  A    between atoms: _270  and  _272
REMARK  108  A    between atoms: _272  and  _273
REMARK  109  A    between atoms: _272  and  _275
REMARK  110  A    between atoms: _275  and  _276
REMARK  111  A    between atoms: _281  and  _282
REMARK                            x       y       z     vdW  Elec       q    Type
REMARK                         _______ _______ _______ _____ _____    ______ ____
ROOT
ATOM      1 FE   UNL     1      28.127  77.110  63.045  0.00  0.00    +0.000 Fe
ENDROOT
TORSDOF 0
