REMARK  Name = ../refined-set-2016/3i25/3i25_pocket.pdb
REMARK  310 active torsions:
REMARK  status: ('A' for Active; 'I' for Inactive)
REMARK    1  A    between atoms: _1  and  _3
REMARK    2  A    between atoms: _3  and  _4
REMARK    3  A    between atoms: _3  and  _6
REMARK    4  A    between atoms: _6  and  _7
REMARK    5  A    between atoms: _7  and  _8
REMARK    6  A    between atoms: _8  and  _9
REMARK    7  A    between atoms: _9  and  _10
REMARK    8  A    between atoms: _14  and  _16
REMARK    9  A    between atoms: _16  and  _17
REMARK   10  A    between atoms: _16  and  _19
REMARK   11  A    between atoms: _19  and  _20
REMARK   12  A    between atoms: _22  and  _24
REMARK   13  A    between atoms: _24  and  _25
REMARK   14  A    between atoms: _27  and  _29
REMARK   15  A    between atoms: _29  and  _30
REMARK   16  A    between atoms: _29  and  _32
REMARK   17  A    between atoms: _32  and  _33
REMARK   18  A    between atoms: _33  and  _34
REMARK   19  A    between atoms: _39  and  _41
REMARK   20  A    between atoms: _41  and  _42
REMARK   21  A    between atoms: _44  and  _46
REMARK   22  A    between atoms: _46  and  _47
REMARK   23  A    between atoms: _46  and  _49
REMARK   24  A    between atoms: _49  and  _50
REMARK   25  A    between atoms: _55  and  _56
REMARK   26  A    between atoms: _58  and  _60
REMARK   27  A    between atoms: _60  and  _61
REMARK   28  A    between atoms: _60  and  _63
REMARK   29  A    between atoms: _63  and  _64
REMARK   30  A    between atoms: _67  and  _69
REMARK   31  A    between atoms: _69  and  _70
REMARK   32  A    between atoms: _69  and  _72
REMARK   33  A    between atoms: _75  and  _77
REMARK   34  A    between atoms: _77  and  _78
REMARK   35  A    between atoms: _77  and  _80
REMARK   36  A    between atoms: _80  and  _81
REMARK   37  A    between atoms: _84  and  _86
REMARK   38  A    between atoms: _86  and  _87
REMARK   39  A    between atoms: _86  and  _89
REMARK   40  A    between atoms: _89  and  _90
REMARK   41  A    between atoms: _93  and  _95
REMARK   42  A    between atoms: _95  and  _96
REMARK   43  A    between atoms: _98  and  _100
REMARK   44  A    between atoms: _100  and  _101
REMARK   45  A    between atoms: _100  and  _103
REMARK   46  A    between atoms: _103  and  _104
REMARK   47  A    between atoms: _106  and  _108
REMARK   48  A    between atoms: _108  and  _109
REMARK   49  A    between atoms: _108  and  _111
REMARK   50  A    between atoms: _111  and  _112
REMARK   51  A    between atoms: _114  and  _116
REMARK   52  A    between atoms: _116  and  _117
REMARK   53  A    between atoms: _116  and  _119
REMARK   54  A    between atoms: _119  and  _120
REMARK   55  A    between atoms: _125  and  _127
REMARK   56  A    between atoms: _127  and  _128
REMARK   57  A    between atoms: _127  and  _130
REMARK   58  A    between atoms: _130  and  _131
REMARK   59  A    between atoms: _136  and  _137
REMARK   60  A    between atoms: _139  and  _141
REMARK   61  A    between atoms: _141  and  _142
REMARK   62  A    between atoms: _141  and  _144
REMARK   63  A    between atoms: _148  and  _149
REMARK   64  A    between atoms: _154  and  _156
REMARK   65  A    between atoms: _156  and  _157
REMARK   66  A    between atoms: _156  and  _159
REMARK   67  A    between atoms: _159  and  _160
REMARK   68  A    between atoms: _165  and  _166
REMARK   69  A    between atoms: _168  and  _170
REMARK   70  A    between atoms: _170  and  _171
REMARK   71  A    between atoms: _170  and  _173
REMARK   72  A    between atoms: _173  and  _174
REMARK   73  A    between atoms: _177  and  _179
REMARK   74  A    between atoms: _179  and  _180
REMARK   75  A    between atoms: _179  and  _182
REMARK   76  A    between atoms: _182  and  _183
REMARK   77  A    between atoms: _183  and  _184
REMARK   78  A    between atoms: _189  and  _191
REMARK   79  A    between atoms: _191  and  _192
REMARK   80  A    between atoms: _194  and  _196
REMARK   81  A    between atoms: _196  and  _197
REMARK   82  A    between atoms: _196  and  _199
REMARK   83  A    between atoms: _199  and  _200
REMARK   84  A    between atoms: _200  and  _201
REMARK   85  A    between atoms: _201  and  _202
REMARK   86  A    between atoms: _202  and  _203
REMARK   87  A    between atoms: _207  and  _209
REMARK   88  A    between atoms: _209  and  _210
REMARK   89  A    between atoms: _209  and  _212
REMARK   90  A    between atoms: _212  and  _213
REMARK   91  A    between atoms: _223  and  _225
REMARK   92  A    between atoms: _225  and  _226
REMARK   93  A    between atoms: _225  and  _228
REMARK   94  A    between atoms: _228  and  _229
REMARK   95  A    between atoms: _232  and  _234
REMARK   96  A    between atoms: _234  and  _235
REMARK   97  A    between atoms: _234  and  _237
REMARK   98  A    between atoms: _237  and  _238
REMARK   99  A    between atoms: _238  and  _239
REMARK  100  A    between atoms: _239  and  _240
REMARK  101  A    between atoms: _240  and  _241
REMARK  102  A    between atoms: _245  and  _247
REMARK  103  A    between atoms: _247  and  _248
REMARK  104  A    between atoms: _247  and  _250
REMARK  105  A    between atoms: _250  and  _251
REMARK  106  A    between atoms: _257  and  _259
REMARK  107  A    between atoms: _259  and  _260
REMARK  108  A    between atoms: _259  and  _262
REMARK  109  A    between atoms: _262  and  _263
REMARK  110  A    between atoms: _269  and  _271
REMARK  111  A    between atoms: _271  and  _272
REMARK  112  A    between atoms: _271  and  _274
REMARK  113  A    between atoms: _274  and  _275
REMARK  114  A    between atoms: _278  and  _280
REMARK  115  A    between atoms: _280  and  _281
REMARK  116  A    between atoms: _280  and  _283
REMARK  117  A    between atoms: _283  and  _284
REMARK  118  A    between atoms: _289  and  _291
REMARK  119  A    between atoms: _291  and  _292
REMARK  120  A    between atoms: _291  and  _294
REMARK  121  A    between atoms: _294  and  _295
REMARK  122  A    between atoms: _297  and  _299
REMARK  123  A    between atoms: _299  and  _300
REMARK  124  A    between atoms: _299  and  _302
REMARK  125  A    between atoms: _302  and  _303
REMARK  126  A    between atoms: _313  and  _315
REMARK  127  A    between atoms: _315  and  _316
REMARK  128  A    between atoms: _318  and  _320
REMARK  129  A    between atoms: _320  and  _321
REMARK  130  A    between atoms: _320  and  _323
REMARK  131  A    between atoms: _323  and  _324
REMARK  132  A    between atoms: _327  and  _329
REMARK  133  A    between atoms: _329  and  _330
REMARK  134  A    between atoms: _329  and  _332
REMARK  135  A    between atoms: _332  and  _333
REMARK  136  A    between atoms: _336  and  _338
REMARK  137  A    between atoms: _338  and  _339
REMARK  138  A    between atoms: _341  and  _343
REMARK  139  A    between atoms: _343  and  _344
REMARK  140  A    between atoms: _343  and  _346
REMARK  141  A    between atoms: _346  and  _347
REMARK  142  A    between atoms: _350  and  _352
REMARK  143  A    between atoms: _352  and  _353
REMARK  144  A    between atoms: _356  and  _358
REMARK  145  A    between atoms: _358  and  _359
REMARK  146  A    between atoms: _358  and  _361
REMARK  147  A    between atoms: _361  and  _362
REMARK  148  A    between atoms: _367  and  _368
REMARK  149  A    between atoms: _370  and  _372
REMARK  150  A    between atoms: _372  and  _373
REMARK  151  A    between atoms: _372  and  _375
REMARK  152  A    between atoms: _375  and  _376
REMARK  153  A    between atoms: _376  and  _377
REMARK  154  A    between atoms: _380  and  _382
REMARK  155  A    between atoms: _382  and  _383
REMARK  156  A    between atoms: _382  and  _385
REMARK  157  A    between atoms: _385  and  _386
REMARK  158  A    between atoms: _389  and  _391
REMARK  159  A    between atoms: _391  and  _392
REMARK  160  A    between atoms: _395  and  _397
REMARK  161  A    between atoms: _397  and  _398
REMARK  162  A    between atoms: _397  and  _400
REMARK  163  A    between atoms: _400  and  _401
REMARK  164  A    between atoms: _401  and  _402
REMARK  165  A    between atoms: _402  and  _403
REMARK  166  A    between atoms: _412  and  _414
REMARK  167  A    between atoms: _414  and  _415
REMARK  168  A    between atoms: _414  and  _417
REMARK  169  A    between atoms: _417  and  _418
REMARK  170  A    between atoms: _421  and  _423
REMARK  171  A    between atoms: _423  and  _424
REMARK  172  A    between atoms: _423  and  _426
REMARK  173  A    between atoms: _429  and  _431
REMARK  174  A    between atoms: _431  and  _432
REMARK  175  A    between atoms: _431  and  _434
REMARK  176  A    between atoms: _434  and  _435
REMARK  177  A    between atoms: _445  and  _447
REMARK  178  A    between atoms: _447  and  _448
REMARK  179  A    between atoms: _447  and  _450
REMARK  180  A    between atoms: _450  and  _451
REMARK  181  A    between atoms: _456  and  _457
REMARK  182  A    between atoms: _459  and  _461
REMARK  183  A    between atoms: _461  and  _462
REMARK  184  A    between atoms: _461  and  _464
REMARK  185  A    between atoms: _464  and  _465
REMARK  186  A    between atoms: _470  and  _471
REMARK  187  A    between atoms: _473  and  _475
REMARK  188  A    between atoms: _475  and  _476
REMARK  189  A    between atoms: _475  and  _478
REMARK  190  A    between atoms: _478  and  _479
REMARK  191  A    between atoms: _482  and  _484
REMARK  192  A    between atoms: _484  and  _485
REMARK  193  A    between atoms: _484  and  _487
REMARK  194  A    between atoms: _487  and  _488
REMARK  195  A    between atoms: _488  and  _489
REMARK  196  A    between atoms: _489  and  _490
REMARK  197  A    between atoms: _490  and  _491
REMARK  198  A    between atoms: _495  and  _497
REMARK  199  A    between atoms: _497  and  _498
REMARK  200  A    between atoms: _497  and  _500
REMARK  201  A    between atoms: _500  and  _501
REMARK  202  A    between atoms: _504  and  _506
REMARK  203  A    between atoms: _506  and  _507
REMARK  204  A    between atoms: _506  and  _509
REMARK  205  A    between atoms: _512  and  _514
REMARK  206  A    between atoms: _514  and  _515
REMARK  207  A    between atoms: _514  and  _517
REMARK  208  A    between atoms: _517  and  _518
REMARK  209  A    between atoms: _521  and  _523
REMARK  210  A    between atoms: _523  and  _524
REMARK  211  A    between atoms: _523  and  _526
REMARK  212  A    between atoms: _526  and  _527
REMARK  213  A    between atoms: _529  and  _531
REMARK  214  A    between atoms: _531  and  _532
REMARK  215  A    between atoms: _534  and  _536
REMARK  216  A    between atoms: _536  and  _537
REMARK  217  A    between atoms: _536  and  _539
REMARK  218  A    between atoms: _539  and  _540
REMARK  219  A    between atoms: _543  and  _545
REMARK  220  A    between atoms: _545  and  _546
REMARK  221  A    between atoms: _545  and  _548
REMARK  222  A    between atoms: _548  and  _549
REMARK  223  A    between atoms: _552  and  _554
REMARK  224  A    between atoms: _554  and  _555
REMARK  225  A    between atoms: _554  and  _557
REMARK  226  A    between atoms: _557  and  _558
REMARK  227  A    between atoms: _563  and  _565
REMARK  228  A    between atoms: _565  and  _566
REMARK  229  A    between atoms: _565  and  _568
REMARK  230  A    between atoms: _568  and  _569
REMARK  231  A    between atoms: _572  and  _574
REMARK  232  A    between atoms: _574  and  _575
REMARK  233  A    between atoms: _574  and  _577
REMARK  234  A    between atoms: _577  and  _578
REMARK  235  A    between atoms: _578  and  _579
REMARK  236  A    between atoms: _579  and  _580
REMARK  237  A    between atoms: _589  and  _591
REMARK  238  A    between atoms: _591  and  _592
REMARK  239  A    between atoms: _591  and  _594
REMARK  240  A    between atoms: _594  and  _595
REMARK  241  A    between atoms: _598  and  _600
REMARK  242  A    between atoms: _600  and  _601
REMARK  243  A    between atoms: _600  and  _603
REMARK  244  A    between atoms: _603  and  _604
REMARK  245  A    between atoms: _604  and  _605
REMARK  246  A    between atoms: _605  and  _606
REMARK  247  A    between atoms: _615  and  _617
REMARK  248  A    between atoms: _617  and  _618
REMARK  249  A    between atoms: _617  and  _620
REMARK  250  A    between atoms: _620  and  _621
REMARK  251  A    between atoms: _621  and  _622
REMARK  252  A    between atoms: _622  and  _623
REMARK  253  A    between atoms: _623  and  _624
REMARK  254  A    between atoms: _628  and  _630
REMARK  255  A    between atoms: _630  and  _631
REMARK  256  A    between atoms: _630  and  _633
REMARK  257  A    between atoms: _633  and  _634
REMARK  258  A    between atoms: _640  and  _642
REMARK  259  A    between atoms: _642  and  _643
REMARK  260  A    between atoms: _646  and  _648
REMARK  261  A    between atoms: _648  and  _649
REMARK  262  A    between atoms: _648  and  _651
REMARK  263  A    between atoms: _651  and  _652
REMARK  264  A    between atoms: _655  and  _657
REMARK  265  A    between atoms: _657  and  _658
REMARK  266  A    between atoms: _657  and  _660
REMARK  267  A    between atoms: _660  and  _661
REMARK  268  A    between atoms: _663  and  _665
REMARK  269  A    between atoms: _665  and  _666
REMARK  270  A    between atoms: _665  and  _668
REMARK  271  A    between atoms: _668  and  _669
REMARK  272  A    between atoms: _669  and  _670
REMARK  273  A    between atoms: _675  and  _677
REMARK  274  A    between atoms: _677  and  _678
REMARK  275  A    between atoms: _677  and  _680
REMARK  276  A    between atoms: _680  and  _681
REMARK  277  A    between atoms: _683  and  _685
REMARK  278  A    between atoms: _685  and  _686
REMARK  279  A    between atoms: _685  and  _688
REMARK  280  A    between atoms: _688  and  _689
REMARK  281  A    between atoms: _691  and  _693
REMARK  282  A    between atoms: _693  and  _694
REMARK  283  A    between atoms: _693  and  _696
REMARK  284  A    between atoms: _696  and  _697
REMARK  285  A    between atoms: _700  and  _702
REMARK  286  A    between atoms: _702  and  _703
REMARK  287  A    between atoms: _705  and  _707
REMARK  288  A    between atoms: _707  and  _708
REMARK  289  A    between atoms: _707  and  _710
REMARK  290  A    between atoms: _710  and  _711
REMARK  291  A    between atoms: _714  and  _716
REMARK  292  A    between atoms: _716  and  _717
REMARK  293  A    between atoms: _716  and  _719
REMARK  294  A    between atoms: _722  and  _724
REMARK  295  A    between atoms: _724  and  _725
REMARK  296  A    between atoms: _724  and  _727
REMARK  297  A    between atoms: _727  and  _728
REMARK  298  A    between atoms: _728  and  _729
REMARK  299  A    between atoms: _731  and  _733
REMARK  300  A    between atoms: _733  and  _734
REMARK  301  A    between atoms: _736  and  _738
REMARK  302  A    between atoms: _738  and  _739
REMARK  303  A    between atoms: _742  and  _744
REMARK  304  A    between atoms: _744  and  _745
REMARK  305  A    between atoms: _744  and  _747
REMARK  306  A    between atoms: _750  and  _752
REMARK  307  A    between atoms: _752  and  _753
REMARK  308  A    between atoms: _752  and  _755
REMARK  309  A    between atoms: _755  and  _756
REMARK  310  A    between atoms: _756  and  _757
REMARK                            x       y       z     vdW  Elec       q    Type
REMARK                         _______ _______ _______ _____ _____    ______ ____
ROOT
ATOM      1  CA  GLN A   4      -0.612  22.540  23.483  0.00  0.00    +0.149 C 
ENDROOT
BRANCH   1   2
ATOM      2  C   GLN A   4      -1.932  22.094  24.150  0.00  0.00    +0.241 C 
ATOM      3  O   GLN A   4      -2.444  22.782  25.032  0.00  0.00    -0.273 OA
ATOM      4  N   GLY A   5      -2.486  20.961  23.711  0.00  0.00    -0.295 N 
ATOM      5  H   GLY A   5      -2.073  20.479  22.887  0.00  0.00    +0.150 HD
BRANCH   4   6
ATOM      6  CA  GLY A   5      -3.660  20.382  24.363  0.00  0.00    +0.176 C 
BRANCH   6   7
ATOM      7  C   GLY A   5      -4.899  20.343  23.541  0.00  0.00    +0.243 C 
ATOM      8  N   TYR A   6      -5.727  19.326  23.778  0.00  0.00    -0.298 N 
ATOM      9  H   TYR A   6      -5.433  18.601  24.463  0.00  0.00    +0.150 HD
ATOM     10  O   GLY A   5      -5.117  21.235  22.711  0.00  0.00    -0.273 OA
BRANCH   8  11
ATOM     11  CA  TYR A   6      -7.024  19.176  23.128  0.00  0.00    +0.141 C 
BRANCH  11  12
ATOM     12  C   TYR A   6      -8.141  19.745  23.962  0.00  0.00    +0.227 C 
ATOM     13  O   TYR A   6      -8.293  19.395  25.147  0.00  0.00    -0.286 OA
ENDBRANCH  11  12
BRANCH  11  14
ATOM     14  CB  TYR A   6      -7.339  17.675  22.877  0.00  0.00    +0.054 C 
BRANCH  14  15
ATOM     15  CG  TYR A   6      -6.397  17.038  21.900  0.00  0.00    -0.020 A 
ATOM     16  CD2 TYR A   6      -5.176  16.509  22.340  0.00  0.00    -0.001 A 
ATOM     17  CE2 TYR A   6      -4.281  15.902  21.440  0.00  0.00    +0.036 A 
ATOM     18  CZ  TYR A   6      -4.623  15.807  20.078  0.00  0.00    +0.134 A 
ATOM     19  CE1 TYR A   6      -5.831  16.326  19.614  0.00  0.00    +0.036 A 
ATOM     20  CD1 TYR A   6      -6.730  16.937  20.524  0.00  0.00    -0.001 A 
BRANCH  18  21
ATOM     21  OH  TYR A   6      -3.693  15.193  19.225  0.00  0.00    -0.506 OA
ATOM     22  HH  TYR A   6      -2.909  14.896  19.752  0.00  0.00    +0.292 HD
ENDBRANCH  18  21
ENDBRANCH  14  15
ENDBRANCH  11  14
ENDBRANCH   8  11
ENDBRANCH   6   7
ENDBRANCH   4   6
ENDBRANCH   1   2
BRANCH   1  25
ATOM     23  C   GLY A   3       1.086  20.985  22.760  0.00  0.00    +0.243 C 
ATOM     24  O   GLY A   3       1.718  21.146  23.839  0.00  0.00    -0.273 OA
ATOM     25  N   GLN A   4      -0.061  21.620  22.500  0.00  0.00    -0.297 N 
ATOM     26  H   GLN A   4      -0.557  21.457  21.600  0.00  0.00    +0.150 HD
BRANCH  23  27
ATOM     27  CA  GLY A   3       1.622  20.049  21.691  0.00  0.00    +0.176 C 
BRANCH  27  29
ATOM     28  C   SER A   2       1.010  21.076  19.535  0.00  0.00    +0.243 C 
ATOM     29  N   GLY A   3       0.885  20.096  20.440  0.00  0.00    -0.295 N 
ATOM     30  H   GLY A   3       0.221  19.323  20.235  0.00  0.00    +0.150 HD
ATOM     31  O   SER A   2       1.655  22.155  19.720  0.00  0.00    -0.273 OA
BRANCH  28  32
ATOM     32  CA  SER A   2       0.259  20.833  18.226  0.00  0.00    +0.178 C 
BRANCH  32  35
ATOM     33  C   LYS A   1      -1.423  22.295  19.076  0.00  0.00    +0.238 C 
ATOM     34  O   LYS A   1      -1.322  21.811  20.233  0.00  0.00    -0.274 OA
ATOM     35  N   SER A   2      -0.663  21.916  18.069  0.00  0.00    -0.295 N 
ATOM     36  H   SER A   2      -0.733  22.407  17.155  0.00  0.00    +0.150 HD
BRANCH  33  37
ATOM     37  CA  LYS A   1      -2.453  23.356  18.714  0.00  0.00    +0.145 C 
BRANCH  37  38
ATOM     38  N   LYS A   1      -3.714  23.063  19.399  0.00  0.00    -0.238 NA
ATOM     39  H   LYS A   1      -3.748  23.120  20.437  0.00  0.00    +0.142 HD
ENDBRANCH  37  38
BRANCH  37  40
ATOM     40  CB  LYS A   1      -1.930  24.759  19.045  0.00  0.00    +0.026 C 
BRANCH  40  41
ATOM     41  CG  LYS A   1      -2.685  25.894  18.338  0.00  0.00    -0.000 C 
BRANCH  41  42
ATOM     42  CD  LYS A   1      -3.762  26.570  19.238  0.00  0.00    -0.024 C 
BRANCH  42  43
ATOM     43  CE  LYS A   1      -5.095  25.773  19.345  0.00  0.00    -0.086 C 
BRANCH  43  44
ATOM     44  NZ  LYS A   1      -6.255  26.104  18.431  0.00  0.00    +0.380 N 
ATOM     45  HZ1 LYS A   1      -7.054  25.474  18.645  0.00  0.00    -0.089 HD
ATOM     46  HZ2 LYS A   1      -6.542  27.092  18.581  0.00  0.00    -0.089 HD
ATOM     47  HZ3 LYS A   1      -5.964  25.972  17.441  0.00  0.00    -0.089 HD
ENDBRANCH  43  44
ENDBRANCH  42  43
ENDBRANCH  41  42
ENDBRANCH  40  41
ENDBRANCH  37  40
ENDBRANCH  33  37
ENDBRANCH  32  35
BRANCH  32  48
ATOM     48  CB  SER A   2       1.209  20.774  17.009  0.00  0.00    +0.166 C 
BRANCH  48  49
ATOM     49  OG  SER A   2       2.062  19.635  17.067  0.00  0.00    -0.380 OA
ATOM     50  H   SER A   2       2.656  19.628  16.275  0.00  0.00    +0.211 HD
ENDBRANCH  48  49
ENDBRANCH  32  48
ENDBRANCH  28  32
ENDBRANCH  27  29
ENDBRANCH  23  27
ENDBRANCH   1  25
BRANCH   1  51
ATOM     51  CB  GLN A   4      -0.678  23.969  22.905  0.00  0.00    +0.039 C 
BRANCH  51  52
ATOM     52  CG  GLN A   4       0.619  24.330  22.184  0.00  0.00    +0.087 C 
BRANCH  52  53
ATOM     53  CD  GLN A   4       1.060  25.747  22.417  0.00  0.00    +0.219 C 
ATOM     54  NE2 GLN A   4       2.225  25.903  23.018  0.00  0.00    -0.329 N 
ATOM     55 HE21 GLN A   4       2.779  25.070  23.302  0.00  0.00    +0.145 HD
ATOM     56 HE22 GLN A   4       2.589  26.859  23.207  0.00  0.00    +0.145 HD
ATOM     57  OE1 GLN A   4       0.372  26.687  22.064  0.00  0.00    -0.275 OA
ENDBRANCH  52  53
ENDBRANCH  51  52
ENDBRANCH   1  51
TORSDOF 25
REMARK  Name = ../refined-set-2016/3i25/3i25_pocket.pdb
REMARK  310 active torsions:
REMARK  status: ('A' for Active; 'I' for Inactive)
REMARK    1  A    between atoms: _1  and  _3
REMARK    2  A    between atoms: _3  and  _4
REMARK    3  A    between atoms: _3  and  _6
REMARK    4  A    between atoms: _6  and  _7
REMARK    5  A    between atoms: _7  and  _8
REMARK    6  A    between atoms: _8  and  _9
REMARK    7  A    between atoms: _9  and  _10
REMARK    8  A    between atoms: _14  and  _16
REMARK    9  A    between atoms: _16  and  _17
REMARK   10  A    between atoms: _16  and  _19
REMARK   11  A    between atoms: _19  and  _20
REMARK   12  A    between atoms: _22  and  _24
REMARK   13  A    between atoms: _24  and  _25
REMARK   14  A    between atoms: _27  and  _29
REMARK   15  A    between atoms: _29  and  _30
REMARK   16  A    between atoms: _29  and  _32
REMARK   17  A    between atoms: _32  and  _33
REMARK   18  A    between atoms: _33  and  _34
REMARK   19  A    between atoms: _39  and  _41
REMARK   20  A    between atoms: _41  and  _42
REMARK   21  A    between atoms: _44  and  _46
REMARK   22  A    between atoms: _46  and  _47
REMARK   23  A    between atoms: _46  and  _49
REMARK   24  A    between atoms: _49  and  _50
REMARK   25  A    between atoms: _55  and  _56
REMARK   26  A    between atoms: _58  and  _60
REMARK   27  A    between atoms: _60  and  _61
REMARK   28  A    between atoms: _60  and  _63
REMARK   29  A    between atoms: _63  and  _64
REMARK   30  A    between atoms: _67  and  _69
REMARK   31  A    between atoms: _69  and  _70
REMARK   32  A    between atoms: _69  and  _72
REMARK   33  A    between atoms: _75  and  _77
REMARK   34  A    between atoms: _77  and  _78
REMARK   35  A    between atoms: _77  and  _80
REMARK   36  A    between atoms: _80  and  _81
REMARK   37  A    between atoms: _84  and  _86
REMARK   38  A    between atoms: _86  and  _87
REMARK   39  A    between atoms: _86  and  _89
REMARK   40  A    between atoms: _89  and  _90
REMARK   41  A    between atoms: _93  and  _95
REMARK   42  A    between atoms: _95  and  _96
REMARK   43  A    between atoms: _98  and  _100
REMARK   44  A    between atoms: _100  and  _101
REMARK   45  A    between atoms: _100  and  _103
REMARK   46  A    between atoms: _103  and  _104
REMARK   47  A    between atoms: _106  and  _108
REMARK   48  A    between atoms: _108  and  _109
REMARK   49  A    between atoms: _108  and  _111
REMARK   50  A    between atoms: _111  and  _112
REMARK   51  A    between atoms: _114  and  _116
REMARK   52  A    between atoms: _116  and  _117
REMARK   53  A    between atoms: _116  and  _119
REMARK   54  A    between atoms: _119  and  _120
REMARK   55  A    between atoms: _125  and  _127
REMARK   56  A    between atoms: _127  and  _128
REMARK   57  A    between atoms: _127  and  _130
REMARK   58  A    between atoms: _130  and  _131
REMARK   59  A    between atoms: _136  and  _137
REMARK   60  A    between atoms: _139  and  _141
REMARK   61  A    between atoms: _141  and  _142
REMARK   62  A    between atoms: _141  and  _144
REMARK   63  A    between atoms: _148  and  _149
REMARK   64  A    between atoms: _154  and  _156
REMARK   65  A    between atoms: _156  and  _157
REMARK   66  A    between atoms: _156  and  _159
REMARK   67  A    between atoms: _159  and  _160
REMARK   68  A    between atoms: _165  and  _166
REMARK   69  A    between atoms: _168  and  _170
REMARK   70  A    between atoms: _170  and  _171
REMARK   71  A    between atoms: _170  and  _173
REMARK   72  A    between atoms: _173  and  _174
REMARK   73  A    between atoms: _177  and  _179
REMARK   74  A    between atoms: _179  and  _180
REMARK   75  A    between atoms: _179  and  _182
REMARK   76  A    between atoms: _182  and  _183
REMARK   77  A    between atoms: _183  and  _184
REMARK   78  A    between atoms: _189  and  _191
REMARK   79  A    between atoms: _191  and  _192
REMARK   80  A    between atoms: _194  and  _196
REMARK   81  A    between atoms: _196  and  _197
REMARK   82  A    between atoms: _196  and  _199
REMARK   83  A    between atoms: _199  and  _200
REMARK   84  A    between atoms: _200  and  _201
REMARK   85  A    between atoms: _201  and  _202
REMARK   86  A    between atoms: _202  and  _203
REMARK   87  A    between atoms: _207  and  _209
REMARK   88  A    between atoms: _209  and  _210
REMARK   89  A    between atoms: _209  and  _212
REMARK   90  A    between atoms: _212  and  _213
REMARK   91  A    between atoms: _223  and  _225
REMARK   92  A    between atoms: _225  and  _226
REMARK   93  A    between atoms: _225  and  _228
REMARK   94  A    between atoms: _228  and  _229
REMARK   95  A    between atoms: _232  and  _234
REMARK   96  A    between atoms: _234  and  _235
REMARK   97  A    between atoms: _234  and  _237
REMARK   98  A    between atoms: _237  and  _238
REMARK   99  A    between atoms: _238  and  _239
REMARK  100  A    between atoms: _239  and  _240
REMARK  101  A    between atoms: _240  and  _241
REMARK  102  A    between atoms: _245  and  _247
REMARK  103  A    between atoms: _247  and  _248
REMARK  104  A    between atoms: _247  and  _250
REMARK  105  A    between atoms: _250  and  _251
REMARK  106  A    between atoms: _257  and  _259
REMARK  107  A    between atoms: _259  and  _260
REMARK  108  A    between atoms: _259  and  _262
REMARK  109  A    between atoms: _262  and  _263
REMARK  110  A    between atoms: _269  and  _271
REMARK  111  A    between atoms: _271  and  _272
REMARK  112  A    between atoms: _271  and  _274
REMARK  113  A    between atoms: _274  and  _275
REMARK  114  A    between atoms: _278  and  _280
REMARK  115  A    between atoms: _280  and  _281
REMARK  116  A    between atoms: _280  and  _283
REMARK  117  A    between atoms: _283  and  _284
REMARK  118  A    between atoms: _289  and  _291
REMARK  119  A    between atoms: _291  and  _292
REMARK  120  A    between atoms: _291  and  _294
REMARK  121  A    between atoms: _294  and  _295
REMARK  122  A    between atoms: _297  and  _299
REMARK  123  A    between atoms: _299  and  _300
REMARK  124  A    between atoms: _299  and  _302
REMARK  125  A    between atoms: _302  and  _303
REMARK  126  A    between atoms: _313  and  _315
REMARK  127  A    between atoms: _315  and  _316
REMARK  128  A    between atoms: _318  and  _320
REMARK  129  A    between atoms: _320  and  _321
REMARK  130  A    between atoms: _320  and  _323
REMARK  131  A    between atoms: _323  and  _324
REMARK  132  A    between atoms: _327  and  _329
REMARK  133  A    between atoms: _329  and  _330
REMARK  134  A    between atoms: _329  and  _332
REMARK  135  A    between atoms: _332  and  _333
REMARK  136  A    between atoms: _336  and  _338
REMARK  137  A    between atoms: _338  and  _339
REMARK  138  A    between atoms: _341  and  _343
REMARK  139  A    between atoms: _343  and  _344
REMARK  140  A    between atoms: _343  and  _346
REMARK  141  A    between atoms: _346  and  _347
REMARK  142  A    between atoms: _350  and  _352
REMARK  143  A    between atoms: _352  and  _353
REMARK  144  A    between atoms: _356  and  _358
REMARK  145  A    between atoms: _358  and  _359
REMARK  146  A    between atoms: _358  and  _361
REMARK  147  A    between atoms: _361  and  _362
REMARK  148  A    between atoms: _367  and  _368
REMARK  149  A    between atoms: _370  and  _372
REMARK  150  A    between atoms: _372  and  _373
REMARK  151  A    between atoms: _372  and  _375
REMARK  152  A    between atoms: _375  and  _376
REMARK  153  A    between atoms: _376  and  _377
REMARK  154  A    between atoms: _380  and  _382
REMARK  155  A    between atoms: _382  and  _383
REMARK  156  A    between atoms: _382  and  _385
REMARK  157  A    between atoms: _385  and  _386
REMARK  158  A    between atoms: _389  and  _391
REMARK  159  A    between atoms: _391  and  _392
REMARK  160  A    between atoms: _395  and  _397
REMARK  161  A    between atoms: _397  and  _398
REMARK  162  A    between atoms: _397  and  _400
REMARK  163  A    between atoms: _400  and  _401
REMARK  164  A    between atoms: _401  and  _402
REMARK  165  A    between atoms: _402  and  _403
REMARK  166  A    between atoms: _412  and  _414
REMARK  167  A    between atoms: _414  and  _415
REMARK  168  A    between atoms: _414  and  _417
REMARK  169  A    between atoms: _417  and  _418
REMARK  170  A    between atoms: _421  and  _423
REMARK  171  A    between atoms: _423  and  _424
REMARK  172  A    between atoms: _423  and  _426
REMARK  173  A    between atoms: _429  and  _431
REMARK  174  A    between atoms: _431  and  _432
REMARK  175  A    between atoms: _431  and  _434
REMARK  176  A    between atoms: _434  and  _435
REMARK  177  A    between atoms: _445  and  _447
REMARK  178  A    between atoms: _447  and  _448
REMARK  179  A    between atoms: _447  and  _450
REMARK  180  A    between atoms: _450  and  _451
REMARK  181  A    between atoms: _456  and  _457
REMARK  182  A    between atoms: _459  and  _461
REMARK  183  A    between atoms: _461  and  _462
REMARK  184  A    between atoms: _461  and  _464
REMARK  185  A    between atoms: _464  and  _465
REMARK  186  A    between atoms: _470  and  _471
REMARK  187  A    between atoms: _473  and  _475
REMARK  188  A    between atoms: _475  and  _476
REMARK  189  A    between atoms: _475  and  _478
REMARK  190  A    between atoms: _478  and  _479
REMARK  191  A    between atoms: _482  and  _484
REMARK  192  A    between atoms: _484  and  _485
REMARK  193  A    between atoms: _484  and  _487
REMARK  194  A    between atoms: _487  and  _488
REMARK  195  A    between atoms: _488  and  _489
REMARK  196  A    between atoms: _489  and  _490
REMARK  197  A    between atoms: _490  and  _491
REMARK  198  A    between atoms: _495  and  _497
REMARK  199  A    between atoms: _497  and  _498
REMARK  200  A    between atoms: _497  and  _500
REMARK  201  A    between atoms: _500  and  _501
REMARK  202  A    between atoms: _504  and  _506
REMARK  203  A    between atoms: _506  and  _507
REMARK  204  A    between atoms: _506  and  _509
REMARK  205  A    between atoms: _512  and  _514
REMARK  206  A    between atoms: _514  and  _515
REMARK  207  A    between atoms: _514  and  _517
REMARK  208  A    between atoms: _517  and  _518
REMARK  209  A    between atoms: _521  and  _523
REMARK  210  A    between atoms: _523  and  _524
REMARK  211  A    between atoms: _523  and  _526
REMARK  212  A    between atoms: _526  and  _527
REMARK  213  A    between atoms: _529  and  _531
REMARK  214  A    between atoms: _531  and  _532
REMARK  215  A    between atoms: _534  and  _536
REMARK  216  A    between atoms: _536  and  _537
REMARK  217  A    between atoms: _536  and  _539
REMARK  218  A    between atoms: _539  and  _540
REMARK  219  A    between atoms: _543  and  _545
REMARK  220  A    between atoms: _545  and  _546
REMARK  221  A    between atoms: _545  and  _548
REMARK  222  A    between atoms: _548  and  _549
REMARK  223  A    between atoms: _552  and  _554
REMARK  224  A    between atoms: _554  and  _555
REMARK  225  A    between atoms: _554  and  _557
REMARK  226  A    between atoms: _557  and  _558
REMARK  227  A    between atoms: _563  and  _565
REMARK  228  A    between atoms: _565  and  _566
REMARK  229  A    between atoms: _565  and  _568
REMARK  230  A    between atoms: _568  and  _569
REMARK  231  A    between atoms: _572  and  _574
REMARK  232  A    between atoms: _574  and  _575
REMARK  233  A    between atoms: _574  and  _577
REMARK  234  A    between atoms: _577  and  _578
REMARK  235  A    between atoms: _578  and  _579
REMARK  236  A    between atoms: _579  and  _580
REMARK  237  A    between atoms: _589  and  _591
REMARK  238  A    between atoms: _591  and  _592
REMARK  239  A    between atoms: _591  and  _594
REMARK  240  A    between atoms: _594  and  _595
REMARK  241  A    between atoms: _598  and  _600
REMARK  242  A    between atoms: _600  and  _601
REMARK  243  A    between atoms: _600  and  _603
REMARK  244  A    between atoms: _603  and  _604
REMARK  245  A    between atoms: _604  and  _605
REMARK  246  A    between atoms: _605  and  _606
REMARK  247  A    between atoms: _615  and  _617
REMARK  248  A    between atoms: _617  and  _618
REMARK  249  A    between atoms: _617  and  _620
REMARK  250  A    between atoms: _620  and  _621
REMARK  251  A    between atoms: _621  and  _622
REMARK  252  A    between atoms: _622  and  _623
REMARK  253  A    between atoms: _623  and  _624
REMARK  254  A    between atoms: _628  and  _630
REMARK  255  A    between atoms: _630  and  _631
REMARK  256  A    between atoms: _630  and  _633
REMARK  257  A    between atoms: _633  and  _634
REMARK  258  A    between atoms: _640  and  _642
REMARK  259  A    between atoms: _642  and  _643
REMARK  260  A    between atoms: _646  and  _648
REMARK  261  A    between atoms: _648  and  _649
REMARK  262  A    between atoms: _648  and  _651
REMARK  263  A    between atoms: _651  and  _652
REMARK  264  A    between atoms: _655  and  _657
REMARK  265  A    between atoms: _657  and  _658
REMARK  266  A    between atoms: _657  and  _660
REMARK  267  A    between atoms: _660  and  _661
REMARK  268  A    between atoms: _663  and  _665
REMARK  269  A    between atoms: _665  and  _666
REMARK  270  A    between atoms: _665  and  _668
REMARK  271  A    between atoms: _668  and  _669
REMARK  272  A    between atoms: _669  and  _670
REMARK  273  A    between atoms: _675  and  _677
REMARK  274  A    between atoms: _677  and  _678
REMARK  275  A    between atoms: _677  and  _680
REMARK  276  A    between atoms: _680  and  _681
REMARK  277  A    between atoms: _683  and  _685
REMARK  278  A    between atoms: _685  and  _686
REMARK  279  A    between atoms: _685  and  _688
REMARK  280  A    between atoms: _688  and  _689
REMARK  281  A    between atoms: _691  and  _693
REMARK  282  A    between atoms: _693  and  _694
REMARK  283  A    between atoms: _693  and  _696
REMARK  284  A    between atoms: _696  and  _697
REMARK  285  A    between atoms: _700  and  _702
REMARK  286  A    between atoms: _702  and  _703
REMARK  287  A    between atoms: _705  and  _707
REMARK  288  A    between atoms: _707  and  _708
REMARK  289  A    between atoms: _707  and  _710
REMARK  290  A    between atoms: _710  and  _711
REMARK  291  A    between atoms: _714  and  _716
REMARK  292  A    between atoms: _716  and  _717
REMARK  293  A    between atoms: _716  and  _719
REMARK  294  A    between atoms: _722  and  _724
REMARK  295  A    between atoms: _724  and  _725
REMARK  296  A    between atoms: _724  and  _727
REMARK  297  A    between atoms: _727  and  _728
REMARK  298  A    between atoms: _728  and  _729
REMARK  299  A    between atoms: _731  and  _733
REMARK  300  A    between atoms: _733  and  _734
REMARK  301  A    between atoms: _736  and  _738
REMARK  302  A    between atoms: _738  and  _739
REMARK  303  A    between atoms: _742  and  _744
REMARK  304  A    between atoms: _744  and  _745
REMARK  305  A    between atoms: _744  and  _747
REMARK  306  A    between atoms: _750  and  _752
REMARK  307  A    between atoms: _752  and  _753
REMARK  308  A    between atoms: _752  and  _755
REMARK  309  A    between atoms: _755  and  _756
REMARK  310  A    between atoms: _756  and  _757
REMARK                            x       y       z     vdW  Elec       q    Type
REMARK                         _______ _______ _______ _____ _____    ______ ____
ROOT
ATOM      1  C   THR A   4      -7.747  11.983  33.161  0.00  0.00    +0.243 C 
ATOM      2  O   THR A   4      -7.908  11.002  33.830  0.00  0.00    -0.273 OA
ATOM      3  N   GLY A   5      -6.719  12.793  33.393  0.00  0.00    -0.295 N 
ATOM      4  H   GLY A   5      -6.524  13.571  32.731  0.00  0.00    +0.150 HD
ENDROOT
BRANCH   3   5
ATOM      5  CA  GLY A   5      -5.857  12.612  34.561  0.00  0.00    +0.176 C 
BRANCH   5   6
ATOM      6  C   GLY A   5      -6.280  13.368  35.844  0.00  0.00    +0.243 C 
ATOM      7  O   GLY A   5      -5.517  13.438  36.805  0.00  0.00    -0.273 OA
ATOM      8  N   SER A   6      -7.464  13.974  35.859  0.00  0.00    -0.295 N 
ATOM      9  H   SER A   6      -8.109  13.889  35.048  0.00  0.00    +0.150 HD
BRANCH   8  10
ATOM     10  CA  SER A   6      -7.852  14.770  37.044  0.00  0.00    +0.178 C 
BRANCH  10  11
ATOM     11  C   SER A   6      -9.348  14.786  37.064  0.00  0.00    +0.243 C 
ATOM     12  N   SER A   7      -9.928  15.316  38.154  0.00  0.00    -0.295 N 
ATOM     13  H   SER A   7      -9.333  15.763  38.880  0.00  0.00    +0.150 HD
ATOM     14  O   SER A   6      -9.970  14.223  36.149  0.00  0.00    -0.273 OA
BRANCH  12  15
ATOM     15  CA  SER A   7     -11.370  15.278  38.340  0.00  0.00    +0.178 C 
BRANCH  15  16
ATOM     16  C   SER A   7     -12.010  16.630  38.699  0.00  0.00    +0.243 C 
ATOM     17  O   SER A   7     -13.168  16.689  39.069  0.00  0.00    -0.273 OA
ATOM     18  N   ASN A   8     -11.284  17.713  38.541  0.00  0.00    -0.298 N 
ATOM     19  H   ASN A   8     -10.291  17.627  38.243  0.00  0.00    +0.150 HD
BRANCH  18  20
ATOM     20  CA  ASN A   8     -11.847  19.023  38.776  0.00  0.00    +0.146 C 
BRANCH  20  21
ATOM     21  C   ASN A   8     -12.138  19.769  37.480  0.00  0.00    +0.227 C 
ATOM     22  O   ASN A   8     -11.297  19.828  36.602  0.00  0.00    -0.286 OA
ENDBRANCH  20  21
BRANCH  20  23
ATOM     23  CB  ASN A   8     -10.849  19.861  39.584  0.00  0.00    +0.112 C 
BRANCH  23  24
ATOM     24  CG  ASN A   8     -10.812  19.460  41.065  0.00  0.00    +0.222 C 
ATOM     25  ND2 ASN A   8     -11.545  20.206  41.882  0.00  0.00    -0.329 N 
ATOM     26 HD21 ASN A   8     -11.561  19.999  42.901  0.00  0.00    +0.145 HD
ATOM     27 HD22 ASN A   8     -12.103  20.998  41.503  0.00  0.00    +0.145 HD
ATOM     28  OD1 ASN A   8     -10.133  18.513  41.455  0.00  0.00    -0.275 OA
ENDBRANCH  23  24
ENDBRANCH  20  23
ENDBRANCH  18  20
ENDBRANCH  15  16
BRANCH  15  29
ATOM     29  CB  SER A   7     -11.709  14.240  39.381  0.00  0.00    +0.166 C 
BRANCH  29  30
ATOM     30  OG  SER A   7     -10.895  13.117  39.114  0.00  0.00    -0.380 OA
ATOM     31  H   SER A   7     -11.086  12.407  39.777  0.00  0.00    +0.211 HD
ENDBRANCH  29  30
ENDBRANCH  15  29
ENDBRANCH  12  15
ENDBRANCH  10  11
BRANCH  10  32
ATOM     32  CB  SER A   6      -7.262  16.202  37.022  0.00  0.00    +0.166 C 
BRANCH  32  33
ATOM     33  OG  SER A   6      -7.855  16.978  35.970  0.00  0.00    -0.380 OA
ATOM     34  H   SER A   6      -7.675  16.543  35.099  0.00  0.00    +0.211 HD
ENDBRANCH  32  33
ENDBRANCH  10  32
ENDBRANCH   8  10
ENDBRANCH   5   6
ENDBRANCH   3   5
BRANCH   1  35
ATOM     35  CA  THR A   4      -8.695  12.255  31.932  0.00  0.00    +0.176 C 
BRANCH  35  38
ATOM     36  C   ASP A   3      -8.667  14.653  31.698  0.00  0.00    +0.241 C 
ATOM     37  O   ASP A   3      -9.517  14.755  32.640  0.00  0.00    -0.273 OA
ATOM     38  N   THR A   4      -8.262  13.457  31.222  0.00  0.00    -0.295 N 
ATOM     39  H   THR A   4      -7.660  13.393  30.376  0.00  0.00    +0.150 HD
BRANCH  36  40
ATOM     40  CA  ASP A   3      -8.093  15.886  30.995  0.00  0.00    +0.160 C 
BRANCH  40  42
ATOM     41  C   VAL A   2      -8.861  16.795  28.828  0.00  0.00    +0.241 C 
ATOM     42  N   ASP A   3      -9.102  16.543  30.119  0.00  0.00    -0.297 N 
ATOM     43  H   ASP A   3     -10.021  16.814  30.523  0.00  0.00    +0.150 HD
ATOM     44  O   VAL A   2      -7.792  16.513  28.293  0.00  0.00    -0.273 OA
BRANCH  41  45
ATOM     45  CA  VAL A   2      -9.953  17.552  28.037  0.00  0.00    +0.148 C 
BRANCH  45  48
ATOM     46  C   LEU A   1      -9.411  19.913  28.525  0.00  0.00    +0.238 C 
ATOM     47  O   LEU A   1      -9.855  19.852  29.688  0.00  0.00    -0.274 OA
ATOM     48  N   VAL A   2      -9.421  18.880  27.685  0.00  0.00    -0.297 N 
ATOM     49  H   VAL A   2      -9.033  19.018  26.730  0.00  0.00    +0.150 HD
BRANCH  46  50
ATOM     50  CA  LEU A   1      -8.818  21.215  27.971  0.00  0.00    +0.145 C 
BRANCH  50  51
ATOM     51  N   LEU A   1      -9.702  22.365  28.096  0.00  0.00    -0.238 NA
ATOM     52  H   LEU A   1      -9.337  23.207  28.585  0.00  0.00    +0.142 HD
ENDBRANCH  50  51
BRANCH  50  53
ATOM     53  CB  LEU A   1      -7.461  21.509  28.607  0.00  0.00    +0.026 C 
BRANCH  53  54
ATOM     54  CG  LEU A   1      -6.408  20.372  28.606  0.00  0.00    +0.002 C 
ATOM     55  CD2 LEU A   1      -5.412  20.503  29.776  0.00  0.00    +0.000 C 
ATOM     56  CD1 LEU A   1      -5.634  20.301  27.267  0.00  0.00    +0.000 C 
ENDBRANCH  53  54
ENDBRANCH  50  53
ENDBRANCH  46  50
ENDBRANCH  45  48
BRANCH  45  57
ATOM     57  CB  VAL A   2     -10.463  16.789  26.755  0.00  0.00    +0.027 C 
ATOM     58  CG2 VAL A   2     -10.882  15.403  27.067  0.00  0.00    +0.002 C 
ATOM     59  CG1 VAL A   2     -11.673  17.488  26.214  0.00  0.00    +0.002 C 
ENDBRANCH  45  57
ENDBRANCH  41  45
ENDBRANCH  40  42
BRANCH  40  60
ATOM     60  CB  ASP A   3      -7.477  16.909  31.976  0.00  0.00    +0.143 C 
BRANCH  60  61
ATOM     61  CG  ASP A   3      -6.387  16.320  32.874  0.00  0.00    +0.367 C 
ATOM     62  OD2 ASP A   3      -6.275  16.757  34.027  0.00  0.00    -0.246 OA
ATOM     63  OD1 ASP A   3      -5.587  15.482  32.451  0.00  0.00    -0.246 OA
ENDBRANCH  60  61
ENDBRANCH  40  60
ENDBRANCH  36  40
ENDBRANCH  35  38
BRANCH  35  64
ATOM     64  CB  THR A   4      -8.752  10.960  31.020  0.00  0.00    +0.137 C 
ATOM     65  CG2 THR A   4      -9.764  11.056  29.899  0.00  0.00    +0.034 C 
BRANCH  64  66
ATOM     66  OG1 THR A   4      -7.470  10.699  30.471  0.00  0.00    -0.382 OA
ATOM     67  HG1 THR A   4      -6.821  10.554  31.205  0.00  0.00    +0.210 HD
ENDBRANCH  64  66
ENDBRANCH  35  64
ENDBRANCH   1  35
TORSDOF 29
REMARK  Name = ../refined-set-2016/3i25/3i25_pocket.pdb
REMARK  310 active torsions:
REMARK  status: ('A' for Active; 'I' for Inactive)
REMARK    1  A    between atoms: _1  and  _3
REMARK    2  A    between atoms: _3  and  _4
REMARK    3  A    between atoms: _3  and  _6
REMARK    4  A    between atoms: _6  and  _7
REMARK    5  A    between atoms: _7  and  _8
REMARK    6  A    between atoms: _8  and  _9
REMARK    7  A    between atoms: _9  and  _10
REMARK    8  A    between atoms: _14  and  _16
REMARK    9  A    between atoms: _16  and  _17
REMARK   10  A    between atoms: _16  and  _19
REMARK   11  A    between atoms: _19  and  _20
REMARK   12  A    between atoms: _22  and  _24
REMARK   13  A    between atoms: _24  and  _25
REMARK   14  A    between atoms: _27  and  _29
REMARK   15  A    between atoms: _29  and  _30
REMARK   16  A    between atoms: _29  and  _32
REMARK   17  A    between atoms: _32  and  _33
REMARK   18  A    between atoms: _33  and  _34
REMARK   19  A    between atoms: _39  and  _41
REMARK   20  A    between atoms: _41  and  _42
REMARK   21  A    between atoms: _44  and  _46
REMARK   22  A    between atoms: _46  and  _47
REMARK   23  A    between atoms: _46  and  _49
REMARK   24  A    between atoms: _49  and  _50
REMARK   25  A    between atoms: _55  and  _56
REMARK   26  A    between atoms: _58  and  _60
REMARK   27  A    between atoms: _60  and  _61
REMARK   28  A    between atoms: _60  and  _63
REMARK   29  A    between atoms: _63  and  _64
REMARK   30  A    between atoms: _67  and  _69
REMARK   31  A    between atoms: _69  and  _70
REMARK   32  A    between atoms: _69  and  _72
REMARK   33  A    between atoms: _75  and  _77
REMARK   34  A    between atoms: _77  and  _78
REMARK   35  A    between atoms: _77  and  _80
REMARK   36  A    between atoms: _80  and  _81
REMARK   37  A    between atoms: _84  and  _86
REMARK   38  A    between atoms: _86  and  _87
REMARK   39  A    between atoms: _86  and  _89
REMARK   40  A    between atoms: _89  and  _90
REMARK   41  A    between atoms: _93  and  _95
REMARK   42  A    between atoms: _95  and  _96
REMARK   43  A    between atoms: _98  and  _100
REMARK   44  A    between atoms: _100  and  _101
REMARK   45  A    between atoms: _100  and  _103
REMARK   46  A    between atoms: _103  and  _104
REMARK   47  A    between atoms: _106  and  _108
REMARK   48  A    between atoms: _108  and  _109
REMARK   49  A    between atoms: _108  and  _111
REMARK   50  A    between atoms: _111  and  _112
REMARK   51  A    between atoms: _114  and  _116
REMARK   52  A    between atoms: _116  and  _117
REMARK   53  A    between atoms: _116  and  _119
REMARK   54  A    between atoms: _119  and  _120
REMARK   55  A    between atoms: _125  and  _127
REMARK   56  A    between atoms: _127  and  _128
REMARK   57  A    between atoms: _127  and  _130
REMARK   58  A    between atoms: _130  and  _131
REMARK   59  A    between atoms: _136  and  _137
REMARK   60  A    between atoms: _139  and  _141
REMARK   61  A    between atoms: _141  and  _142
REMARK   62  A    between atoms: _141  and  _144
REMARK   63  A    between atoms: _148  and  _149
REMARK   64  A    between atoms: _154  and  _156
REMARK   65  A    between atoms: _156  and  _157
REMARK   66  A    between atoms: _156  and  _159
REMARK   67  A    between atoms: _159  and  _160
REMARK   68  A    between atoms: _165  and  _166
REMARK   69  A    between atoms: _168  and  _170
REMARK   70  A    between atoms: _170  and  _171
REMARK   71  A    between atoms: _170  and  _173
REMARK   72  A    between atoms: _173  and  _174
REMARK   73  A    between atoms: _177  and  _179
REMARK   74  A    between atoms: _179  and  _180
REMARK   75  A    between atoms: _179  and  _182
REMARK   76  A    between atoms: _182  and  _183
REMARK   77  A    between atoms: _183  and  _184
REMARK   78  A    between atoms: _189  and  _191
REMARK   79  A    between atoms: _191  and  _192
REMARK   80  A    between atoms: _194  and  _196
REMARK   81  A    between atoms: _196  and  _197
REMARK   82  A    between atoms: _196  and  _199
REMARK   83  A    between atoms: _199  and  _200
REMARK   84  A    between atoms: _200  and  _201
REMARK   85  A    between atoms: _201  and  _202
REMARK   86  A    between atoms: _202  and  _203
REMARK   87  A    between atoms: _207  and  _209
REMARK   88  A    between atoms: _209  and  _210
REMARK   89  A    between atoms: _209  and  _212
REMARK   90  A    between atoms: _212  and  _213
REMARK   91  A    between atoms: _223  and  _225
REMARK   92  A    between atoms: _225  and  _226
REMARK   93  A    between atoms: _225  and  _228
REMARK   94  A    between atoms: _228  and  _229
REMARK   95  A    between atoms: _232  and  _234
REMARK   96  A    between atoms: _234  and  _235
REMARK   97  A    between atoms: _234  and  _237
REMARK   98  A    between atoms: _237  and  _238
REMARK   99  A    between atoms: _238  and  _239
REMARK  100  A    between atoms: _239  and  _240
REMARK  101  A    between atoms: _240  and  _241
REMARK  102  A    between atoms: _245  and  _247
REMARK  103  A    between atoms: _247  and  _248
REMARK  104  A    between atoms: _247  and  _250
REMARK  105  A    between atoms: _250  and  _251
REMARK  106  A    between atoms: _257  and  _259
REMARK  107  A    between atoms: _259  and  _260
REMARK  108  A    between atoms: _259  and  _262
REMARK  109  A    between atoms: _262  and  _263
REMARK  110  A    between atoms: _269  and  _271
REMARK  111  A    between atoms: _271  and  _272
REMARK  112  A    between atoms: _271  and  _274
REMARK  113  A    between atoms: _274  and  _275
REMARK  114  A    between atoms: _278  and  _280
REMARK  115  A    between atoms: _280  and  _281
REMARK  116  A    between atoms: _280  and  _283
REMARK  117  A    between atoms: _283  and  _284
REMARK  118  A    between atoms: _289  and  _291
REMARK  119  A    between atoms: _291  and  _292
REMARK  120  A    between atoms: _291  and  _294
REMARK  121  A    between atoms: _294  and  _295
REMARK  122  A    between atoms: _297  and  _299
REMARK  123  A    between atoms: _299  and  _300
REMARK  124  A    between atoms: _299  and  _302
REMARK  125  A    between atoms: _302  and  _303
REMARK  126  A    between atoms: _313  and  _315
REMARK  127  A    between atoms: _315  and  _316
REMARK  128  A    between atoms: _318  and  _320
REMARK  129  A    between atoms: _320  and  _321
REMARK  130  A    between atoms: _320  and  _323
REMARK  131  A    between atoms: _323  and  _324
REMARK  132  A    between atoms: _327  and  _329
REMARK  133  A    between atoms: _329  and  _330
REMARK  134  A    between atoms: _329  and  _332
REMARK  135  A    between atoms: _332  and  _333
REMARK  136  A    between atoms: _336  and  _338
REMARK  137  A    between atoms: _338  and  _339
REMARK  138  A    between atoms: _341  and  _343
REMARK  139  A    between atoms: _343  and  _344
REMARK  140  A    between atoms: _343  and  _346
REMARK  141  A    between atoms: _346  and  _347
REMARK  142  A    between atoms: _350  and  _352
REMARK  143  A    between atoms: _352  and  _353
REMARK  144  A    between atoms: _356  and  _358
REMARK  145  A    between atoms: _358  and  _359
REMARK  146  A    between atoms: _358  and  _361
REMARK  147  A    between atoms: _361  and  _362
REMARK  148  A    between atoms: _367  and  _368
REMARK  149  A    between atoms: _370  and  _372
REMARK  150  A    between atoms: _372  and  _373
REMARK  151  A    between atoms: _372  and  _375
REMARK  152  A    between atoms: _375  and  _376
REMARK  153  A    between atoms: _376  and  _377
REMARK  154  A    between atoms: _380  and  _382
REMARK  155  A    between atoms: _382  and  _383
REMARK  156  A    between atoms: _382  and  _385
REMARK  157  A    between atoms: _385  and  _386
REMARK  158  A    between atoms: _389  and  _391
REMARK  159  A    between atoms: _391  and  _392
REMARK  160  A    between atoms: _395  and  _397
REMARK  161  A    between atoms: _397  and  _398
REMARK  162  A    between atoms: _397  and  _400
REMARK  163  A    between atoms: _400  and  _401
REMARK  164  A    between atoms: _401  and  _402
REMARK  165  A    between atoms: _402  and  _403
REMARK  166  A    between atoms: _412  and  _414
REMARK  167  A    between atoms: _414  and  _415
REMARK  168  A    between atoms: _414  and  _417
REMARK  169  A    between atoms: _417  and  _418
REMARK  170  A    between atoms: _421  and  _423
REMARK  171  A    between atoms: _423  and  _424
REMARK  172  A    between atoms: _423  and  _426
REMARK  173  A    between atoms: _429  and  _431
REMARK  174  A    between atoms: _431  and  _432
REMARK  175  A    between atoms: _431  and  _434
REMARK  176  A    between atoms: _434  and  _435
REMARK  177  A    between atoms: _445  and  _447
REMARK  178  A    between atoms: _447  and  _448
REMARK  179  A    between atoms: _447  and  _450
REMARK  180  A    between atoms: _450  and  _451
REMARK  181  A    between atoms: _456  and  _457
REMARK  182  A    between atoms: _459  and  _461
REMARK  183  A    between atoms: _461  and  _462
REMARK  184  A    between atoms: _461  and  _464
REMARK  185  A    between atoms: _464  and  _465
REMARK  186  A    between atoms: _470  and  _471
REMARK  187  A    between atoms: _473  and  _475
REMARK  188  A    between atoms: _475  and  _476
REMARK  189  A    between atoms: _475  and  _478
REMARK  190  A    between atoms: _478  and  _479
REMARK  191  A    between atoms: _482  and  _484
REMARK  192  A    between atoms: _484  and  _485
REMARK  193  A    between atoms: _484  and  _487
REMARK  194  A    between atoms: _487  and  _488
REMARK  195  A    between atoms: _488  and  _489
REMARK  196  A    between atoms: _489  and  _490
REMARK  197  A    between atoms: _490  and  _491
REMARK  198  A    between atoms: _495  and  _497
REMARK  199  A    between atoms: _497  and  _498
REMARK  200  A    between atoms: _497  and  _500
REMARK  201  A    between atoms: _500  and  _501
REMARK  202  A    between atoms: _504  and  _506
REMARK  203  A    between atoms: _506  and  _507
REMARK  204  A    between atoms: _506  and  _509
REMARK  205  A    between atoms: _512  and  _514
REMARK  206  A    between atoms: _514  and  _515
REMARK  207  A    between atoms: _514  and  _517
REMARK  208  A    between atoms: _517  and  _518
REMARK  209  A    between atoms: _521  and  _523
REMARK  210  A    between atoms: _523  and  _524
REMARK  211  A    between atoms: _523  and  _526
REMARK  212  A    between atoms: _526  and  _527
REMARK  213  A    between atoms: _529  and  _531
REMARK  214  A    between atoms: _531  and  _532
REMARK  215  A    between atoms: _534  and  _536
REMARK  216  A    between atoms: _536  and  _537
REMARK  217  A    between atoms: _536  and  _539
REMARK  218  A    between atoms: _539  and  _540
REMARK  219  A    between atoms: _543  and  _545
REMARK  220  A    between atoms: _545  and  _546
REMARK  221  A    between atoms: _545  and  _548
REMARK  222  A    between atoms: _548  and  _549
REMARK  223  A    between atoms: _552  and  _554
REMARK  224  A    between atoms: _554  and  _555
REMARK  225  A    between atoms: _554  and  _557
REMARK  226  A    between atoms: _557  and  _558
REMARK  227  A    between atoms: _563  and  _565
REMARK  228  A    between atoms: _565  and  _566
REMARK  229  A    between atoms: _565  and  _568
REMARK  230  A    between atoms: _568  and  _569
REMARK  231  A    between atoms: _572  and  _574
REMARK  232  A    between atoms: _574  and  _575
REMARK  233  A    between atoms: _574  and  _577
REMARK  234  A    between atoms: _577  and  _578
REMARK  235  A    between atoms: _578  and  _579
REMARK  236  A    between atoms: _579  and  _580
REMARK  237  A    between atoms: _589  and  _591
REMARK  238  A    between atoms: _591  and  _592
REMARK  239  A    between atoms: _591  and  _594
REMARK  240  A    between atoms: _594  and  _595
REMARK  241  A    between atoms: _598  and  _600
REMARK  242  A    between atoms: _600  and  _601
REMARK  243  A    between atoms: _600  and  _603
REMARK  244  A    between atoms: _603  and  _604
REMARK  245  A    between atoms: _604  and  _605
REMARK  246  A    between atoms: _605  and  _606
REMARK  247  A    between atoms: _615  and  _617
REMARK  248  A    between atoms: _617  and  _618
REMARK  249  A    between atoms: _617  and  _620
REMARK  250  A    between atoms: _620  and  _621
REMARK  251  A    between atoms: _621  and  _622
REMARK  252  A    between atoms: _622  and  _623
REMARK  253  A    between atoms: _623  and  _624
REMARK  254  A    between atoms: _628  and  _630
REMARK  255  A    between atoms: _630  and  _631
REMARK  256  A    between atoms: _630  and  _633
REMARK  257  A    between atoms: _633  and  _634
REMARK  258  A    between atoms: _640  and  _642
REMARK  259  A    between atoms: _642  and  _643
REMARK  260  A    between atoms: _646  and  _648
REMARK  261  A    between atoms: _648  and  _649
REMARK  262  A    between atoms: _648  and  _651
REMARK  263  A    between atoms: _651  and  _652
REMARK  264  A    between atoms: _655  and  _657
REMARK  265  A    between atoms: _657  and  _658
REMARK  266  A    between atoms: _657  and  _660
REMARK  267  A    between atoms: _660  and  _661
REMARK  268  A    between atoms: _663  and  _665
REMARK  269  A    between atoms: _665  and  _666
REMARK  270  A    between atoms: _665  and  _668
REMARK  271  A    between atoms: _668  and  _669
REMARK  272  A    between atoms: _669  and  _670
REMARK  273  A    between atoms: _675  and  _677
REMARK  274  A    between atoms: _677  and  _678
REMARK  275  A    between atoms: _677  and  _680
REMARK  276  A    between atoms: _680  and  _681
REMARK  277  A    between atoms: _683  and  _685
REMARK  278  A    between atoms: _685  and  _686
REMARK  279  A    between atoms: _685  and  _688
REMARK  280  A    between atoms: _688  and  _689
REMARK  281  A    between atoms: _691  and  _693
REMARK  282  A    between atoms: _693  and  _694
REMARK  283  A    between atoms: _693  and  _696
REMARK  284  A    between atoms: _696  and  _697
REMARK  285  A    between atoms: _700  and  _702
REMARK  286  A    between atoms: _702  and  _703
REMARK  287  A    between atoms: _705  and  _707
REMARK  288  A    between atoms: _707  and  _708
REMARK  289  A    between atoms: _707  and  _710
REMARK  290  A    between atoms: _710  and  _711
REMARK  291  A    between atoms: _714  and  _716
REMARK  292  A    between atoms: _716  and  _717
REMARK  293  A    between atoms: _716  and  _719
REMARK  294  A    between atoms: _722  and  _724
REMARK  295  A    between atoms: _724  and  _725
REMARK  296  A    between atoms: _724  and  _727
REMARK  297  A    between atoms: _727  and  _728
REMARK  298  A    between atoms: _728  and  _729
REMARK  299  A    between atoms: _731  and  _733
REMARK  300  A    between atoms: _733  and  _734
REMARK  301  A    between atoms: _736  and  _738
REMARK  302  A    between atoms: _738  and  _739
REMARK  303  A    between atoms: _742  and  _744
REMARK  304  A    between atoms: _744  and  _745
REMARK  305  A    between atoms: _744  and  _747
REMARK  306  A    between atoms: _750  and  _752
REMARK  307  A    between atoms: _752  and  _753
REMARK  308  A    between atoms: _752  and  _755
REMARK  309  A    between atoms: _755  and  _756
REMARK  310  A    between atoms: _756  and  _757
REMARK                            x       y       z     vdW  Elec       q    Type
REMARK                         _______ _______ _______ _____ _____    ______ ____
ROOT
ATOM      1  CA  THR A   5       2.685  17.483  37.293  0.00  0.00    +0.176 C 
ENDROOT
BRANCH   1   4
ATOM      2  C   TYR A   4       0.938  18.643  38.524  0.00  0.00    +0.241 C 
ATOM      3  O   TYR A   4       1.740  19.389  39.086  0.00  0.00    -0.273 OA
ATOM      4  N   THR A   5       1.292  17.741  37.606  0.00  0.00    -0.295 N 
ATOM      5  H   THR A   5       0.552  17.211  37.103  0.00  0.00    +0.150 HD
BRANCH   2   6
ATOM      6  CA  TYR A   4      -0.539  18.786  38.740  0.00  0.00    +0.153 C 
BRANCH   6   9
ATOM      7  C   PRO A   3      -1.540  19.627  40.754  0.00  0.00    +0.241 C 
ATOM      8  O   PRO A   3      -2.241  18.622  40.865  0.00  0.00    -0.273 OA
ATOM      9  N   TYR A   4      -0.728  19.828  39.723  0.00  0.00    -0.297 N 
ATOM     10  H   TYR A   4      -0.228  20.735  39.623  0.00  0.00    +0.150 HD
BRANCH   7  16
ATOM     11  C   VAL A   2      -3.728  21.873  41.867  0.00  0.00    +0.244 C 
ATOM     12  N   PRO A   3      -2.877  20.953  42.366  0.00  0.00    -0.272 N 
ATOM     13  CD  PRO A   3      -3.196  20.049  43.495  0.00  0.00    +0.094 C 
ATOM     14  CG  PRO A   3      -1.875  19.408  43.822  0.00  0.00    +0.024 C 
ATOM     15  CB  PRO A   3      -0.809  20.202  43.102  0.00  0.00    +0.031 C 
ATOM     16  CA  PRO A   3      -1.550  20.722  41.857  0.00  0.00    +0.152 C 
ATOM     17  O   VAL A   2      -3.399  22.695  41.017  0.00  0.00    -0.273 OA
BRANCH  11  18
ATOM     18  CA  VAL A   2      -5.154  21.857  42.439  0.00  0.00    +0.149 C 
BRANCH  18  21
ATOM     19  C   TYR A   1      -5.911  23.104  44.436  0.00  0.00    +0.239 C 
ATOM     20  O   TYR A   1      -6.343  22.062  44.967  0.00  0.00    -0.274 OA
ATOM     21  N   VAL A   2      -5.424  23.129  43.186  0.00  0.00    -0.297 N 
ATOM     22  H   VAL A   2      -5.231  24.043  42.729  0.00  0.00    +0.150 HD
BRANCH  19  23
ATOM     23  CA  TYR A   1      -5.987  24.438  45.193  0.00  0.00    +0.149 C 
BRANCH  23  24
ATOM     24  N   TYR A   1      -7.235  24.433  45.818  0.00  0.00    -0.238 NA
ATOM     25  H   TYR A   1      -7.501  23.613  46.400  0.00  0.00    +0.142 HD
ENDBRANCH  23  24
BRANCH  23  26
ATOM     26  CB  TYR A   1      -4.926  24.540  46.287  0.00  0.00    +0.053 C 
BRANCH  26  27
ATOM     27  CG  TYR A   1      -3.593  24.098  45.818  0.00  0.00    -0.020 A 
ATOM     28  CD2 TYR A   1      -3.102  22.828  46.148  0.00  0.00    -0.001 A 
ATOM     29  CE2 TYR A   1      -1.907  22.401  45.706  0.00  0.00    +0.036 A 
ATOM     30  CZ  TYR A   1      -1.152  23.230  44.866  0.00  0.00    +0.134 A 
ATOM     31  CE1 TYR A   1      -1.630  24.497  44.503  0.00  0.00    +0.036 A 
ATOM     32  CD1 TYR A   1      -2.853  24.912  44.982  0.00  0.00    -0.001 A 
BRANCH  30  33
ATOM     33  OH  TYR A   1       0.112  22.847  44.406  0.00  0.00    -0.506 OA
ATOM     34  HH  TYR A   1       0.482  23.561  43.829  0.00  0.00    +0.292 HD
ENDBRANCH  30  33
ENDBRANCH  26  27
ENDBRANCH  23  26
ENDBRANCH  19  23
ENDBRANCH  18  21
BRANCH  18  35
ATOM     35  CB  VAL A   2      -6.249  21.471  41.358  0.00  0.00    +0.027 C 
ATOM     36  CG2 VAL A   2      -7.615  21.401  41.966  0.00  0.00    +0.002 C 
ATOM     37  CG1 VAL A   2      -5.955  20.115  40.703  0.00  0.00    +0.002 C 
ENDBRANCH  18  35
ENDBRANCH  11  18
ENDBRANCH   7  16
ENDBRANCH   6   9
BRANCH   6  38
ATOM     38  CB  TYR A   4      -1.184  19.146  37.376  0.00  0.00    +0.055 C 
BRANCH  38  39
ATOM     39  CG  TYR A   4      -2.605  19.609  37.385  0.00  0.00    -0.020 A 
ATOM     40  CD2 TYR A   4      -2.927  20.972  37.604  0.00  0.00    -0.001 A 
ATOM     41  CE2 TYR A   4      -4.227  21.405  37.601  0.00  0.00    +0.036 A 
ATOM     42  CZ  TYR A   4      -5.230  20.532  37.351  0.00  0.00    +0.134 A 
ATOM     43  CE1 TYR A   4      -4.961  19.178  37.123  0.00  0.00    +0.036 A 
ATOM     44  CD1 TYR A   4      -3.645  18.733  37.132  0.00  0.00    -0.001 A 
BRANCH  42  45
ATOM     45  OH  TYR A   4      -6.533  20.987  37.324  0.00  0.00    -0.506 OA
ATOM     46  HH  TYR A   4      -7.141  20.231  37.130  0.00  0.00    +0.292 HD
ENDBRANCH  42  45
ENDBRANCH  38  39
ENDBRANCH   6  38
ENDBRANCH   2   6
ENDBRANCH   1   4
BRANCH   1  47
ATOM     47  C   THR A   5       3.354  18.718  36.765  0.00  0.00    +0.243 C 
ATOM     48  O   THR A   5       4.481  19.010  37.138  0.00  0.00    -0.273 OA
ATOM     49  N   GLN A   6       2.655  19.438  35.898  0.00  0.00    -0.297 N 
ATOM     50  H   GLN A   6       1.646  19.228  35.761  0.00  0.00    +0.150 HD
BRANCH  49  51
ATOM     51  CA  GLN A   6       3.258  20.500  35.145  0.00  0.00    +0.149 C 
BRANCH  51  52
ATOM     52  C   GLN A   6       3.065  21.911  35.783  0.00  0.00    +0.241 C 
ATOM     53  N   GLY A   7       2.005  22.088  36.571  0.00  0.00    -0.295 N 
ATOM     54  H   GLY A   7       1.366  21.285  36.738  0.00  0.00    +0.150 HD
ATOM     55  O   GLN A   6       3.865  22.815  35.535  0.00  0.00    -0.273 OA
BRANCH  53  56
ATOM     56  CA  GLY A   7       1.706  23.375  37.213  0.00  0.00    +0.176 C 
BRANCH  56  57
ATOM     57  C   GLY A   7       0.509  23.240  38.128  0.00  0.00    +0.243 C 
ATOM     58  N   LYS A   8      -0.020  24.361  38.590  0.00  0.00    -0.297 N 
ATOM     59  H   LYS A   8       0.265  25.272  38.176  0.00  0.00    +0.150 HD
ATOM     60  O   GLY A   7       0.054  22.158  38.412  0.00  0.00    -0.273 OA
BRANCH  58  61
ATOM     61  CA  LYS A   8      -0.994  24.337  39.668  0.00  0.00    +0.149 C 
BRANCH  61  62
ATOM     62  C   LYS A   8      -1.811  25.595  39.613  0.00  0.00    +0.241 C 
ATOM     63  N   TRP A   9      -3.005  25.552  40.176  0.00  0.00    -0.298 N 
ATOM     64  H   TRP A   9      -3.384  24.649  40.525  0.00  0.00    +0.150 HD
ATOM     65  O   LYS A   8      -1.386  26.574  39.048  0.00  0.00    -0.273 OA
BRANCH  63  66
ATOM     66  CA  TRP A   9      -3.775  26.749  40.305  0.00  0.00    +0.141 C 
BRANCH  66  67
ATOM     67  C   TRP A   9      -4.514  26.757  41.652  0.00  0.00    +0.227 C 
ATOM     68  O   TRP A   9      -4.692  25.726  42.307  0.00  0.00    -0.286 OA
ENDBRANCH  66  67
BRANCH  66  69
ATOM     69  CB  TRP A   9      -4.753  26.924  39.127  0.00  0.00    +0.056 C 
BRANCH  69  70
ATOM     70  CG  TRP A   9      -5.653  25.750  38.895  0.00  0.00    -0.002 A 
ATOM     71  CD2 TRP A   9      -6.869  25.449  39.579  0.00  0.00    +0.013 A 
ATOM     72  CE3 TRP A   9      -7.558  26.045  40.644  0.00  0.00    +0.001 A 
ATOM     73  CZ3 TRP A   9      -8.702  25.447  41.104  0.00  0.00    +0.000 A 
ATOM     74  CH2 TRP A   9      -9.177  24.252  40.547  0.00  0.00    +0.001 A 
ATOM     75  CZ2 TRP A   9      -8.518  23.636  39.503  0.00  0.00    +0.017 A 
ATOM     76  CE2 TRP A   9      -7.353  24.240  39.046  0.00  0.00    +0.056 A 
ATOM     77  NE1 TRP A   9      -6.506  23.868  38.041  0.00  0.00    -0.352 N 
ATOM     78  HE1 TRP A   9      -6.624  23.037  37.427  0.00  0.00    +0.166 HD
ATOM     79  CD1 TRP A   9      -5.478  24.767  37.975  0.00  0.00    +0.068 A 
ENDBRANCH  69  70
ENDBRANCH  66  69
ENDBRANCH  63  66
ENDBRANCH  61  62
BRANCH  61  80
ATOM     80  CB  LYS A   8      -0.269  24.261  41.021  0.00  0.00    +0.029 C 
BRANCH  80  81
ATOM     81  CG  LYS A   8       0.969  25.202  41.101  0.00  0.00    +0.000 C 
BRANCH  81  82
ATOM     82  CD  LYS A   8       1.296  25.528  42.533  0.00  0.00    -0.024 C 
BRANCH  82  83
ATOM     83  CE  LYS A   8       2.496  24.799  43.039  0.00  0.00    -0.086 C 
BRANCH  83  84
ATOM     84  NZ  LYS A   8       3.720  25.219  42.298  0.00  0.00    +0.380 N 
ATOM     85  HZ1 LYS A   8       4.542  24.699  42.666  0.00  0.00    -0.089 HD
ATOM     86  HZ2 LYS A   8       3.868  26.240  42.426  0.00  0.00    -0.089 HD
ATOM     87  HZ3 LYS A   8       3.601  25.009  41.286  0.00  0.00    -0.089 HD
ENDBRANCH  83  84
ENDBRANCH  82  83
ENDBRANCH  81  82
ENDBRANCH  80  81
ENDBRANCH  61  80
ENDBRANCH  58  61
ENDBRANCH  56  57
ENDBRANCH  53  56
ENDBRANCH  51  52
BRANCH  51  88
ATOM     88  CB  GLN A   6       2.699  20.495  33.714  0.00  0.00    +0.039 C 
BRANCH  88  89
ATOM     89  CG  GLN A   6       3.355  21.571  32.868  0.00  0.00    +0.087 C 
BRANCH  89  90
ATOM     90  CD  GLN A   6       3.380  21.253  31.410  0.00  0.00    +0.219 C 
ATOM     91  OE1 GLN A   6       4.201  20.453  30.935  0.00  0.00    -0.275 OA
ATOM     92  NE2 GLN A   6       2.533  21.933  30.668  0.00  0.00    -0.329 N 
ATOM     93 HE21 GLN A   6       1.864  22.592  31.114  0.00  0.00    +0.145 HD
ATOM     94 HE22 GLN A   6       2.533  21.811  29.635  0.00  0.00    +0.145 HD
ENDBRANCH  89  90
ENDBRANCH  88  89
ENDBRANCH  51  88
ENDBRANCH  49  51
ENDBRANCH   1  47
BRANCH   1  95
ATOM     95  CB  THR A   5       2.863  16.316  36.289  0.00  0.00    +0.137 C 
ATOM     96  CG2 THR A   5       4.351  16.032  36.029  0.00  0.00    +0.034 C 
BRANCH  95  97
ATOM     97  OG1 THR A   5       2.259  15.134  36.823  0.00  0.00    -0.382 OA
ATOM     98  HG1 THR A   5       2.373  14.388  36.182  0.00  0.00    +0.210 HD
ENDBRANCH  95  97
ENDBRANCH   1  95
TORSDOF 36
REMARK  Name = ../refined-set-2016/3i25/3i25_pocket.pdb
REMARK  310 active torsions:
REMARK  status: ('A' for Active; 'I' for Inactive)
REMARK    1  A    between atoms: _1  and  _3
REMARK    2  A    between atoms: _3  and  _4
REMARK    3  A    between atoms: _3  and  _6
REMARK    4  A    between atoms: _6  and  _7
REMARK    5  A    between atoms: _7  and  _8
REMARK    6  A    between atoms: _8  and  _9
REMARK    7  A    between atoms: _9  and  _10
REMARK    8  A    between atoms: _14  and  _16
REMARK    9  A    between atoms: _16  and  _17
REMARK   10  A    between atoms: _16  and  _19
REMARK   11  A    between atoms: _19  and  _20
REMARK   12  A    between atoms: _22  and  _24
REMARK   13  A    between atoms: _24  and  _25
REMARK   14  A    between atoms: _27  and  _29
REMARK   15  A    between atoms: _29  and  _30
REMARK   16  A    between atoms: _29  and  _32
REMARK   17  A    between atoms: _32  and  _33
REMARK   18  A    between atoms: _33  and  _34
REMARK   19  A    between atoms: _39  and  _41
REMARK   20  A    between atoms: _41  and  _42
REMARK   21  A    between atoms: _44  and  _46
REMARK   22  A    between atoms: _46  and  _47
REMARK   23  A    between atoms: _46  and  _49
REMARK   24  A    between atoms: _49  and  _50
REMARK   25  A    between atoms: _55  and  _56
REMARK   26  A    between atoms: _58  and  _60
REMARK   27  A    between atoms: _60  and  _61
REMARK   28  A    between atoms: _60  and  _63
REMARK   29  A    between atoms: _63  and  _64
REMARK   30  A    between atoms: _67  and  _69
REMARK   31  A    between atoms: _69  and  _70
REMARK   32  A    between atoms: _69  and  _72
REMARK   33  A    between atoms: _75  and  _77
REMARK   34  A    between atoms: _77  and  _78
REMARK   35  A    between atoms: _77  and  _80
REMARK   36  A    between atoms: _80  and  _81
REMARK   37  A    between atoms: _84  and  _86
REMARK   38  A    between atoms: _86  and  _87
REMARK   39  A    between atoms: _86  and  _89
REMARK   40  A    between atoms: _89  and  _90
REMARK   41  A    between atoms: _93  and  _95
REMARK   42  A    between atoms: _95  and  _96
REMARK   43  A    between atoms: _98  and  _100
REMARK   44  A    between atoms: _100  and  _101
REMARK   45  A    between atoms: _100  and  _103
REMARK   46  A    between atoms: _103  and  _104
REMARK   47  A    between atoms: _106  and  _108
REMARK   48  A    between atoms: _108  and  _109
REMARK   49  A    between atoms: _108  and  _111
REMARK   50  A    between atoms: _111  and  _112
REMARK   51  A    between atoms: _114  and  _116
REMARK   52  A    between atoms: _116  and  _117
REMARK   53  A    between atoms: _116  and  _119
REMARK   54  A    between atoms: _119  and  _120
REMARK   55  A    between atoms: _125  and  _127
REMARK   56  A    between atoms: _127  and  _128
REMARK   57  A    between atoms: _127  and  _130
REMARK   58  A    between atoms: _130  and  _131
REMARK   59  A    between atoms: _136  and  _137
REMARK   60  A    between atoms: _139  and  _141
REMARK   61  A    between atoms: _141  and  _142
REMARK   62  A    between atoms: _141  and  _144
REMARK   63  A    between atoms: _148  and  _149
REMARK   64  A    between atoms: _154  and  _156
REMARK   65  A    between atoms: _156  and  _157
REMARK   66  A    between atoms: _156  and  _159
REMARK   67  A    between atoms: _159  and  _160
REMARK   68  A    between atoms: _165  and  _166
REMARK   69  A    between atoms: _168  and  _170
REMARK   70  A    between atoms: _170  and  _171
REMARK   71  A    between atoms: _170  and  _173
REMARK   72  A    between atoms: _173  and  _174
REMARK   73  A    between atoms: _177  and  _179
REMARK   74  A    between atoms: _179  and  _180
REMARK   75  A    between atoms: _179  and  _182
REMARK   76  A    between atoms: _182  and  _183
REMARK   77  A    between atoms: _183  and  _184
REMARK   78  A    between atoms: _189  and  _191
REMARK   79  A    between atoms: _191  and  _192
REMARK   80  A    between atoms: _194  and  _196
REMARK   81  A    between atoms: _196  and  _197
REMARK   82  A    between atoms: _196  and  _199
REMARK   83  A    between atoms: _199  and  _200
REMARK   84  A    between atoms: _200  and  _201
REMARK   85  A    between atoms: _201  and  _202
REMARK   86  A    between atoms: _202  and  _203
REMARK   87  A    between atoms: _207  and  _209
REMARK   88  A    between atoms: _209  and  _210
REMARK   89  A    between atoms: _209  and  _212
REMARK   90  A    between atoms: _212  and  _213
REMARK   91  A    between atoms: _223  and  _225
REMARK   92  A    between atoms: _225  and  _226
REMARK   93  A    between atoms: _225  and  _228
REMARK   94  A    between atoms: _228  and  _229
REMARK   95  A    between atoms: _232  and  _234
REMARK   96  A    between atoms: _234  and  _235
REMARK   97  A    between atoms: _234  and  _237
REMARK   98  A    between atoms: _237  and  _238
REMARK   99  A    between atoms: _238  and  _239
REMARK  100  A    between atoms: _239  and  _240
REMARK  101  A    between atoms: _240  and  _241
REMARK  102  A    between atoms: _245  and  _247
REMARK  103  A    between atoms: _247  and  _248
REMARK  104  A    between atoms: _247  and  _250
REMARK  105  A    between atoms: _250  and  _251
REMARK  106  A    between atoms: _257  and  _259
REMARK  107  A    between atoms: _259  and  _260
REMARK  108  A    between atoms: _259  and  _262
REMARK  109  A    between atoms: _262  and  _263
REMARK  110  A    between atoms: _269  and  _271
REMARK  111  A    between atoms: _271  and  _272
REMARK  112  A    between atoms: _271  and  _274
REMARK  113  A    between atoms: _274  and  _275
REMARK  114  A    between atoms: _278  and  _280
REMARK  115  A    between atoms: _280  and  _281
REMARK  116  A    between atoms: _280  and  _283
REMARK  117  A    between atoms: _283  and  _284
REMARK  118  A    between atoms: _289  and  _291
REMARK  119  A    between atoms: _291  and  _292
REMARK  120  A    between atoms: _291  and  _294
REMARK  121  A    between atoms: _294  and  _295
REMARK  122  A    between atoms: _297  and  _299
REMARK  123  A    between atoms: _299  and  _300
REMARK  124  A    between atoms: _299  and  _302
REMARK  125  A    between atoms: _302  and  _303
REMARK  126  A    between atoms: _313  and  _315
REMARK  127  A    between atoms: _315  and  _316
REMARK  128  A    between atoms: _318  and  _320
REMARK  129  A    between atoms: _320  and  _321
REMARK  130  A    between atoms: _320  and  _323
REMARK  131  A    between atoms: _323  and  _324
REMARK  132  A    between atoms: _327  and  _329
REMARK  133  A    between atoms: _329  and  _330
REMARK  134  A    between atoms: _329  and  _332
REMARK  135  A    between atoms: _332  and  _333
REMARK  136  A    between atoms: _336  and  _338
REMARK  137  A    between atoms: _338  and  _339
REMARK  138  A    between atoms: _341  and  _343
REMARK  139  A    between atoms: _343  and  _344
REMARK  140  A    between atoms: _343  and  _346
REMARK  141  A    between atoms: _346  and  _347
REMARK  142  A    between atoms: _350  and  _352
REMARK  143  A    between atoms: _352  and  _353
REMARK  144  A    between atoms: _356  and  _358
REMARK  145  A    between atoms: _358  and  _359
REMARK  146  A    between atoms: _358  and  _361
REMARK  147  A    between atoms: _361  and  _362
REMARK  148  A    between atoms: _367  and  _368
REMARK  149  A    between atoms: _370  and  _372
REMARK  150  A    between atoms: _372  and  _373
REMARK  151  A    between atoms: _372  and  _375
REMARK  152  A    between atoms: _375  and  _376
REMARK  153  A    between atoms: _376  and  _377
REMARK  154  A    between atoms: _380  and  _382
REMARK  155  A    between atoms: _382  and  _383
REMARK  156  A    between atoms: _382  and  _385
REMARK  157  A    between atoms: _385  and  _386
REMARK  158  A    between atoms: _389  and  _391
REMARK  159  A    between atoms: _391  and  _392
REMARK  160  A    between atoms: _395  and  _397
REMARK  161  A    between atoms: _397  and  _398
REMARK  162  A    between atoms: _397  and  _400
REMARK  163  A    between atoms: _400  and  _401
REMARK  164  A    between atoms: _401  and  _402
REMARK  165  A    between atoms: _402  and  _403
REMARK  166  A    between atoms: _412  and  _414
REMARK  167  A    between atoms: _414  and  _415
REMARK  168  A    between atoms: _414  and  _417
REMARK  169  A    between atoms: _417  and  _418
REMARK  170  A    between atoms: _421  and  _423
REMARK  171  A    between atoms: _423  and  _424
REMARK  172  A    between atoms: _423  and  _426
REMARK  173  A    between atoms: _429  and  _431
REMARK  174  A    between atoms: _431  and  _432
REMARK  175  A    between atoms: _431  and  _434
REMARK  176  A    between atoms: _434  and  _435
REMARK  177  A    between atoms: _445  and  _447
REMARK  178  A    between atoms: _447  and  _448
REMARK  179  A    between atoms: _447  and  _450
REMARK  180  A    between atoms: _450  and  _451
REMARK  181  A    between atoms: _456  and  _457
REMARK  182  A    between atoms: _459  and  _461
REMARK  183  A    between atoms: _461  and  _462
REMARK  184  A    between atoms: _461  and  _464
REMARK  185  A    between atoms: _464  and  _465
REMARK  186  A    between atoms: _470  and  _471
REMARK  187  A    between atoms: _473  and  _475
REMARK  188  A    between atoms: _475  and  _476
REMARK  189  A    between atoms: _475  and  _478
REMARK  190  A    between atoms: _478  and  _479
REMARK  191  A    between atoms: _482  and  _484
REMARK  192  A    between atoms: _484  and  _485
REMARK  193  A    between atoms: _484  and  _487
REMARK  194  A    between atoms: _487  and  _488
REMARK  195  A    between atoms: _488  and  _489
REMARK  196  A    between atoms: _489  and  _490
REMARK  197  A    between atoms: _490  and  _491
REMARK  198  A    between atoms: _495  and  _497
REMARK  199  A    between atoms: _497  and  _498
REMARK  200  A    between atoms: _497  and  _500
REMARK  201  A    between atoms: _500  and  _501
REMARK  202  A    between atoms: _504  and  _506
REMARK  203  A    between atoms: _506  and  _507
REMARK  204  A    between atoms: _506  and  _509
REMARK  205  A    between atoms: _512  and  _514
REMARK  206  A    between atoms: _514  and  _515
REMARK  207  A    between atoms: _514  and  _517
REMARK  208  A    between atoms: _517  and  _518
REMARK  209  A    between atoms: _521  and  _523
REMARK  210  A    between atoms: _523  and  _524
REMARK  211  A    between atoms: _523  and  _526
REMARK  212  A    between atoms: _526  and  _527
REMARK  213  A    between atoms: _529  and  _531
REMARK  214  A    between atoms: _531  and  _532
REMARK  215  A    between atoms: _534  and  _536
REMARK  216  A    between atoms: _536  and  _537
REMARK  217  A    between atoms: _536  and  _539
REMARK  218  A    between atoms: _539  and  _540
REMARK  219  A    between atoms: _543  and  _545
REMARK  220  A    between atoms: _545  and  _546
REMARK  221  A    between atoms: _545  and  _548
REMARK  222  A    between atoms: _548  and  _549
REMARK  223  A    between atoms: _552  and  _554
REMARK  224  A    between atoms: _554  and  _555
REMARK  225  A    between atoms: _554  and  _557
REMARK  226  A    between atoms: _557  and  _558
REMARK  227  A    between atoms: _563  and  _565
REMARK  228  A    between atoms: _565  and  _566
REMARK  229  A    between atoms: _565  and  _568
REMARK  230  A    between atoms: _568  and  _569
REMARK  231  A    between atoms: _572  and  _574
REMARK  232  A    between atoms: _574  and  _575
REMARK  233  A    between atoms: _574  and  _577
REMARK  234  A    between atoms: _577  and  _578
REMARK  235  A    between atoms: _578  and  _579
REMARK  236  A    between atoms: _579  and  _580
REMARK  237  A    between atoms: _589  and  _591
REMARK  238  A    between atoms: _591  and  _592
REMARK  239  A    between atoms: _591  and  _594
REMARK  240  A    between atoms: _594  and  _595
REMARK  241  A    between atoms: _598  and  _600
REMARK  242  A    between atoms: _600  and  _601
REMARK  243  A    between atoms: _600  and  _603
REMARK  244  A    between atoms: _603  and  _604
REMARK  245  A    between atoms: _604  and  _605
REMARK  246  A    between atoms: _605  and  _606
REMARK  247  A    between atoms: _615  and  _617
REMARK  248  A    between atoms: _617  and  _618
REMARK  249  A    between atoms: _617  and  _620
REMARK  250  A    between atoms: _620  and  _621
REMARK  251  A    between atoms: _621  and  _622
REMARK  252  A    between atoms: _622  and  _623
REMARK  253  A    between atoms: _623  and  _624
REMARK  254  A    between atoms: _628  and  _630
REMARK  255  A    between atoms: _630  and  _631
REMARK  256  A    between atoms: _630  and  _633
REMARK  257  A    between atoms: _633  and  _634
REMARK  258  A    between atoms: _640  and  _642
REMARK  259  A    between atoms: _642  and  _643
REMARK  260  A    between atoms: _646  and  _648
REMARK  261  A    between atoms: _648  and  _649
REMARK  262  A    between atoms: _648  and  _651
REMARK  263  A    between atoms: _651  and  _652
REMARK  264  A    between atoms: _655  and  _657
REMARK  265  A    between atoms: _657  and  _658
REMARK  266  A    between atoms: _657  and  _660
REMARK  267  A    between atoms: _660  and  _661
REMARK  268  A    between atoms: _663  and  _665
REMARK  269  A    between atoms: _665  and  _666
REMARK  270  A    between atoms: _665  and  _668
REMARK  271  A    between atoms: _668  and  _669
REMARK  272  A    between atoms: _669  and  _670
REMARK  273  A    between atoms: _675  and  _677
REMARK  274  A    between atoms: _677  and  _678
REMARK  275  A    between atoms: _677  and  _680
REMARK  276  A    between atoms: _680  and  _681
REMARK  277  A    between atoms: _683  and  _685
REMARK  278  A    between atoms: _685  and  _686
REMARK  279  A    between atoms: _685  and  _688
REMARK  280  A    between atoms: _688  and  _689
REMARK  281  A    between atoms: _691  and  _693
REMARK  282  A    between atoms: _693  and  _694
REMARK  283  A    between atoms: _693  and  _696
REMARK  284  A    between atoms: _696  and  _697
REMARK  285  A    between atoms: _700  and  _702
REMARK  286  A    between atoms: _702  and  _703
REMARK  287  A    between atoms: _705  and  _707
REMARK  288  A    between atoms: _707  and  _708
REMARK  289  A    between atoms: _707  and  _710
REMARK  290  A    between atoms: _710  and  _711
REMARK  291  A    between atoms: _714  and  _716
REMARK  292  A    between atoms: _716  and  _717
REMARK  293  A    between atoms: _716  and  _719
REMARK  294  A    between atoms: _722  and  _724
REMARK  295  A    between atoms: _724  and  _725
REMARK  296  A    between atoms: _724  and  _727
REMARK  297  A    between atoms: _727  and  _728
REMARK  298  A    between atoms: _728  and  _729
REMARK  299  A    between atoms: _731  and  _733
REMARK  300  A    between atoms: _733  and  _734
REMARK  301  A    between atoms: _736  and  _738
REMARK  302  A    between atoms: _738  and  _739
REMARK  303  A    between atoms: _742  and  _744
REMARK  304  A    between atoms: _744  and  _745
REMARK  305  A    between atoms: _744  and  _747
REMARK  306  A    between atoms: _750  and  _752
REMARK  307  A    between atoms: _752  and  _753
REMARK  308  A    between atoms: _752  and  _755
REMARK  309  A    between atoms: _755  and  _756
REMARK  310  A    between atoms: _756  and  _757
REMARK                            x       y       z     vdW  Elec       q    Type
REMARK                         _______ _______ _______ _____ _____    ______ ____
ROOT
ATOM      1  C   PHE A   3      -1.271  26.486  32.828  0.00  0.00    +0.241 C 
ATOM      2  N   PHE A   4      -1.658  27.735  32.574  0.00  0.00    -0.297 N 
ATOM      3  H   PHE A   4      -1.653  28.428  33.349  0.00  0.00    +0.150 HD
ATOM      4  O   PHE A   3      -1.181  25.624  31.955  0.00  0.00    -0.273 OA
ENDROOT
BRANCH   1   5
ATOM      5  CA  PHE A   3      -0.862  26.153  34.269  0.00  0.00    +0.153 C 
BRANCH   5   7
ATOM      6  C   LYS A   2       1.519  26.390  34.512  0.00  0.00    +0.241 C 
ATOM      7  N   PHE A   3       0.310  26.898  34.656  0.00  0.00    -0.297 N 
ATOM      8  H   PHE A   3       0.201  27.852  35.055  0.00  0.00    +0.150 HD
ATOM      9  O   LYS A   2       1.700  25.225  34.181  0.00  0.00    -0.273 OA
BRANCH   6  10
ATOM     10  CA  LYS A   2       2.722  27.300  34.870  0.00  0.00    +0.149 C 
BRANCH  10  13
ATOM     11  C   ASP A   1       1.968  27.842  37.129  0.00  0.00    +0.239 C 
ATOM     12  O   ASP A   1       1.819  26.669  37.416  0.00  0.00    -0.274 OA
ATOM     13  N   LYS A   2       2.410  28.237  35.935  0.00  0.00    -0.297 N 
ATOM     14  H   LYS A   2       2.536  29.254  35.759  0.00  0.00    +0.150 HD
BRANCH  11  15
ATOM     15  CA  ASP A   1       1.627  28.950  38.168  0.00  0.00    +0.156 C 
BRANCH  15  16
ATOM     16  N   ASP A   1       0.204  28.952  38.350  0.00  0.00    -0.238 NA
ATOM     17  H   ASP A   1      -0.295  28.040  38.337  0.00  0.00    +0.142 HD
ENDBRANCH  15  16
BRANCH  15  18
ATOM     18  CB  ASP A   1       2.291  28.635  39.533  0.00  0.00    +0.140 C 
BRANCH  18  19
ATOM     19  CG  ASP A   1       3.820  28.599  39.464  0.00  0.00    +0.367 C 
ATOM     20  OD2 ASP A   1       4.468  27.918  40.295  0.00  0.00    -0.246 OA
ATOM     21  OD1 ASP A   1       4.400  29.279  38.597  0.00  0.00    -0.246 OA
ENDBRANCH  18  19
ENDBRANCH  15  18
ENDBRANCH  11  15
ENDBRANCH  10  13
BRANCH  10  22
ATOM     22  CB  LYS A   2       3.915  26.406  35.283  0.00  0.00    +0.029 C 
BRANCH  22  23
ATOM     23  CG  LYS A   2       5.223  27.113  35.559  0.00  0.00    +0.000 C 
BRANCH  23  24
ATOM     24  CD  LYS A   2       6.239  26.048  35.941  0.00  0.00    -0.024 C 
BRANCH  24  25
ATOM     25  CE  LYS A   2       7.312  26.597  36.873  0.00  0.00    -0.086 C 
BRANCH  25  26
ATOM     26  NZ  LYS A   2       6.719  27.026  38.188  0.00  0.00    +0.380 N 
ATOM     27  HZ1 LYS A   2       7.472  27.395  38.803  0.00  0.00    -0.089 HD
ATOM     28  HZ2 LYS A   2       6.266  26.209  38.646  0.00  0.00    -0.089 HD
ATOM     29  HZ3 LYS A   2       6.010  27.769  38.021  0.00  0.00    -0.089 HD
ENDBRANCH  25  26
ENDBRANCH  24  25
ENDBRANCH  23  24
ENDBRANCH  22  23
ENDBRANCH  10  22
ENDBRANCH   6  10
ENDBRANCH   5   7
BRANCH   5  30
ATOM     30  CB  PHE A   3      -1.984  26.381  35.270  0.00  0.00    +0.055 C 
BRANCH  30  31
ATOM     31  CG  PHE A   3      -3.219  25.632  34.951  0.00  0.00    -0.020 A 
ATOM     32  CD2 PHE A   3      -3.275  24.255  35.128  0.00  0.00    -0.004 A 
ATOM     33  CE2 PHE A   3      -4.411  23.572  34.818  0.00  0.00    -0.000 A 
ATOM     34  CZ  PHE A   3      -5.529  24.236  34.324  0.00  0.00    -0.000 A 
ATOM     35  CE1 PHE A   3      -5.482  25.620  34.136  0.00  0.00    -0.000 A 
ATOM     36  CD1 PHE A   3      -4.324  26.300  34.458  0.00  0.00    -0.004 A 
ENDBRANCH  30  31
ENDBRANCH   5  30
ENDBRANCH   1   5
BRANCH   2  37
ATOM     37  CA  PHE A   4      -2.086  28.164  31.259  0.00  0.00    +0.153 C 
BRANCH  37  38
ATOM     38  C   PHE A   4      -0.896  28.172  30.325  0.00  0.00    +0.241 C 
ATOM     39  O   PHE A   4       0.222  28.476  30.722  0.00  0.00    -0.273 OA
ATOM     40  N   ILE A   5      -1.151  27.794  29.082  0.00  0.00    -0.297 N 
ATOM     41  H   ILE A   5      -2.118  27.497  28.839  0.00  0.00    +0.150 HD
BRANCH  40  42
ATOM     42  CA  ILE A   5      -0.131  27.777  28.041  0.00  0.00    +0.149 C 
BRANCH  42  43
ATOM     43  C   ILE A   5      -0.394  28.901  27.039  0.00  0.00    +0.241 C 
ATOM     44  N   ASN A   6       0.638  29.691  26.802  0.00  0.00    -0.298 N 
ATOM     45  H   ASN A   6       1.539  29.497  27.283  0.00  0.00    +0.150 HD
ATOM     46  O   ILE A   5      -1.493  29.043  26.490  0.00  0.00    -0.273 OA
BRANCH  44  47
ATOM     47  CA  ASN A   6       0.558  30.828  25.888  0.00  0.00    +0.146 C 
BRANCH  47  48
ATOM     48  C   ASN A   6       0.270  30.348  24.449  0.00  0.00    +0.227 C 
ATOM     49  O   ASN A   6       1.038  29.592  23.889  0.00  0.00    -0.286 OA
ENDBRANCH  47  48
BRANCH  47  50
ATOM     50  CB  ASN A   6       1.897  31.570  25.948  0.00  0.00    +0.112 C 
BRANCH  50  51
ATOM     51  CG  ASN A   6       1.879  32.912  25.216  0.00  0.00    +0.222 C 
ATOM     52  ND2 ASN A   6       3.071  33.423  24.938  0.00  0.00    -0.329 N 
ATOM     53 HD21 ASN A   6       3.933  32.912  25.216  0.00  0.00    +0.145 HD
ATOM     54 HD22 ASN A   6       3.143  34.334  24.442  0.00  0.00    +0.145 HD
ATOM     55  OD1 ASN A   6       0.822  33.478  24.908  0.00  0.00    -0.275 OA
ENDBRANCH  50  51
ENDBRANCH  47  50
ENDBRANCH  44  47
ENDBRANCH  42  43
BRANCH  42  56
ATOM     56  CB  ILE A   5      -0.079  26.412  27.310  0.00  0.00    +0.027 C 
ATOM     57  CG2 ILE A   5       0.910  26.468  26.106  0.00  0.00    +0.002 C 
BRANCH  56  58
ATOM     58  CG1 ILE A   5       0.227  25.291  28.314  0.00  0.00    +0.002 C 
ATOM     59  CD1 ILE A   5       0.230  23.878  27.724  0.00  0.00    +0.000 C 
ENDBRANCH  56  58
ENDBRANCH  42  56
ENDBRANCH  40  42
ENDBRANCH  37  38
BRANCH  37  60
ATOM     60  CB  PHE A   4      -2.778  29.538  31.307  0.00  0.00    +0.055 C 
BRANCH  60  61
ATOM     61  CG  PHE A   4      -4.013  29.556  32.172  0.00  0.00    -0.020 A 
ATOM     62  CD2 PHE A   4      -4.086  30.394  33.284  0.00  0.00    -0.004 A 
ATOM     63  CE2 PHE A   4      -5.184  30.402  34.100  0.00  0.00    -0.000 A 
ATOM     64  CZ  PHE A   4      -6.262  29.577  33.815  0.00  0.00    -0.000 A 
ATOM     65  CE1 PHE A   4      -6.221  28.731  32.692  0.00  0.00    -0.000 A 
ATOM     66  CD1 PHE A   4      -5.098  28.729  31.878  0.00  0.00    -0.004 A 
ENDBRANCH  60  61
ENDBRANCH  37  60
ENDBRANCH   2  37
TORSDOF 27
REMARK  Name = ../refined-set-2016/3i25/3i25_pocket.pdb
REMARK  310 active torsions:
REMARK  status: ('A' for Active; 'I' for Inactive)
REMARK    1  A    between atoms: _1  and  _3
REMARK    2  A    between atoms: _3  and  _4
REMARK    3  A    between atoms: _3  and  _6
REMARK    4  A    between atoms: _6  and  _7
REMARK    5  A    between atoms: _7  and  _8
REMARK    6  A    between atoms: _8  and  _9
REMARK    7  A    between atoms: _9  and  _10
REMARK    8  A    between atoms: _14  and  _16
REMARK    9  A    between atoms: _16  and  _17
REMARK   10  A    between atoms: _16  and  _19
REMARK   11  A    between atoms: _19  and  _20
REMARK   12  A    between atoms: _22  and  _24
REMARK   13  A    between atoms: _24  and  _25
REMARK   14  A    between atoms: _27  and  _29
REMARK   15  A    between atoms: _29  and  _30
REMARK   16  A    between atoms: _29  and  _32
REMARK   17  A    between atoms: _32  and  _33
REMARK   18  A    between atoms: _33  and  _34
REMARK   19  A    between atoms: _39  and  _41
REMARK   20  A    between atoms: _41  and  _42
REMARK   21  A    between atoms: _44  and  _46
REMARK   22  A    between atoms: _46  and  _47
REMARK   23  A    between atoms: _46  and  _49
REMARK   24  A    between atoms: _49  and  _50
REMARK   25  A    between atoms: _55  and  _56
REMARK   26  A    between atoms: _58  and  _60
REMARK   27  A    between atoms: _60  and  _61
REMARK   28  A    between atoms: _60  and  _63
REMARK   29  A    between atoms: _63  and  _64
REMARK   30  A    between atoms: _67  and  _69
REMARK   31  A    between atoms: _69  and  _70
REMARK   32  A    between atoms: _69  and  _72
REMARK   33  A    between atoms: _75  and  _77
REMARK   34  A    between atoms: _77  and  _78
REMARK   35  A    between atoms: _77  and  _80
REMARK   36  A    between atoms: _80  and  _81
REMARK   37  A    between atoms: _84  and  _86
REMARK   38  A    between atoms: _86  and  _87
REMARK   39  A    between atoms: _86  and  _89
REMARK   40  A    between atoms: _89  and  _90
REMARK   41  A    between atoms: _93  and  _95
REMARK   42  A    between atoms: _95  and  _96
REMARK   43  A    between atoms: _98  and  _100
REMARK   44  A    between atoms: _100  and  _101
REMARK   45  A    between atoms: _100  and  _103
REMARK   46  A    between atoms: _103  and  _104
REMARK   47  A    between atoms: _106  and  _108
REMARK   48  A    between atoms: _108  and  _109
REMARK   49  A    between atoms: _108  and  _111
REMARK   50  A    between atoms: _111  and  _112
REMARK   51  A    between atoms: _114  and  _116
REMARK   52  A    between atoms: _116  and  _117
REMARK   53  A    between atoms: _116  and  _119
REMARK   54  A    between atoms: _119  and  _120
REMARK   55  A    between atoms: _125  and  _127
REMARK   56  A    between atoms: _127  and  _128
REMARK   57  A    between atoms: _127  and  _130
REMARK   58  A    between atoms: _130  and  _131
REMARK   59  A    between atoms: _136  and  _137
REMARK   60  A    between atoms: _139  and  _141
REMARK   61  A    between atoms: _141  and  _142
REMARK   62  A    between atoms: _141  and  _144
REMARK   63  A    between atoms: _148  and  _149
REMARK   64  A    between atoms: _154  and  _156
REMARK   65  A    between atoms: _156  and  _157
REMARK   66  A    between atoms: _156  and  _159
REMARK   67  A    between atoms: _159  and  _160
REMARK   68  A    between atoms: _165  and  _166
REMARK   69  A    between atoms: _168  and  _170
REMARK   70  A    between atoms: _170  and  _171
REMARK   71  A    between atoms: _170  and  _173
REMARK   72  A    between atoms: _173  and  _174
REMARK   73  A    between atoms: _177  and  _179
REMARK   74  A    between atoms: _179  and  _180
REMARK   75  A    between atoms: _179  and  _182
REMARK   76  A    between atoms: _182  and  _183
REMARK   77  A    between atoms: _183  and  _184
REMARK   78  A    between atoms: _189  and  _191
REMARK   79  A    between atoms: _191  and  _192
REMARK   80  A    between atoms: _194  and  _196
REMARK   81  A    between atoms: _196  and  _197
REMARK   82  A    between atoms: _196  and  _199
REMARK   83  A    between atoms: _199  and  _200
REMARK   84  A    between atoms: _200  and  _201
REMARK   85  A    between atoms: _201  and  _202
REMARK   86  A    between atoms: _202  and  _203
REMARK   87  A    between atoms: _207  and  _209
REMARK   88  A    between atoms: _209  and  _210
REMARK   89  A    between atoms: _209  and  _212
REMARK   90  A    between atoms: _212  and  _213
REMARK   91  A    between atoms: _223  and  _225
REMARK   92  A    between atoms: _225  and  _226
REMARK   93  A    between atoms: _225  and  _228
REMARK   94  A    between atoms: _228  and  _229
REMARK   95  A    between atoms: _232  and  _234
REMARK   96  A    between atoms: _234  and  _235
REMARK   97  A    between atoms: _234  and  _237
REMARK   98  A    between atoms: _237  and  _238
REMARK   99  A    between atoms: _238  and  _239
REMARK  100  A    between atoms: _239  and  _240
REMARK  101  A    between atoms: _240  and  _241
REMARK  102  A    between atoms: _245  and  _247
REMARK  103  A    between atoms: _247  and  _248
REMARK  104  A    between atoms: _247  and  _250
REMARK  105  A    between atoms: _250  and  _251
REMARK  106  A    between atoms: _257  and  _259
REMARK  107  A    between atoms: _259  and  _260
REMARK  108  A    between atoms: _259  and  _262
REMARK  109  A    between atoms: _262  and  _263
REMARK  110  A    between atoms: _269  and  _271
REMARK  111  A    between atoms: _271  and  _272
REMARK  112  A    between atoms: _271  and  _274
REMARK  113  A    between atoms: _274  and  _275
REMARK  114  A    between atoms: _278  and  _280
REMARK  115  A    between atoms: _280  and  _281
REMARK  116  A    between atoms: _280  and  _283
REMARK  117  A    between atoms: _283  and  _284
REMARK  118  A    between atoms: _289  and  _291
REMARK  119  A    between atoms: _291  and  _292
REMARK  120  A    between atoms: _291  and  _294
REMARK  121  A    between atoms: _294  and  _295
REMARK  122  A    between atoms: _297  and  _299
REMARK  123  A    between atoms: _299  and  _300
REMARK  124  A    between atoms: _299  and  _302
REMARK  125  A    between atoms: _302  and  _303
REMARK  126  A    between atoms: _313  and  _315
REMARK  127  A    between atoms: _315  and  _316
REMARK  128  A    between atoms: _318  and  _320
REMARK  129  A    between atoms: _320  and  _321
REMARK  130  A    between atoms: _320  and  _323
REMARK  131  A    between atoms: _323  and  _324
REMARK  132  A    between atoms: _327  and  _329
REMARK  133  A    between atoms: _329  and  _330
REMARK  134  A    between atoms: _329  and  _332
REMARK  135  A    between atoms: _332  and  _333
REMARK  136  A    between atoms: _336  and  _338
REMARK  137  A    between atoms: _338  and  _339
REMARK  138  A    between atoms: _341  and  _343
REMARK  139  A    between atoms: _343  and  _344
REMARK  140  A    between atoms: _343  and  _346
REMARK  141  A    between atoms: _346  and  _347
REMARK  142  A    between atoms: _350  and  _352
REMARK  143  A    between atoms: _352  and  _353
REMARK  144  A    between atoms: _356  and  _358
REMARK  145  A    between atoms: _358  and  _359
REMARK  146  A    between atoms: _358  and  _361
REMARK  147  A    between atoms: _361  and  _362
REMARK  148  A    between atoms: _367  and  _368
REMARK  149  A    between atoms: _370  and  _372
REMARK  150  A    between atoms: _372  and  _373
REMARK  151  A    between atoms: _372  and  _375
REMARK  152  A    between atoms: _375  and  _376
REMARK  153  A    between atoms: _376  and  _377
REMARK  154  A    between atoms: _380  and  _382
REMARK  155  A    between atoms: _382  and  _383
REMARK  156  A    between atoms: _382  and  _385
REMARK  157  A    between atoms: _385  and  _386
REMARK  158  A    between atoms: _389  and  _391
REMARK  159  A    between atoms: _391  and  _392
REMARK  160  A    between atoms: _395  and  _397
REMARK  161  A    between atoms: _397  and  _398
REMARK  162  A    between atoms: _397  and  _400
REMARK  163  A    between atoms: _400  and  _401
REMARK  164  A    between atoms: _401  and  _402
REMARK  165  A    between atoms: _402  and  _403
REMARK  166  A    between atoms: _412  and  _414
REMARK  167  A    between atoms: _414  and  _415
REMARK  168  A    between atoms: _414  and  _417
REMARK  169  A    between atoms: _417  and  _418
REMARK  170  A    between atoms: _421  and  _423
REMARK  171  A    between atoms: _423  and  _424
REMARK  172  A    between atoms: _423  and  _426
REMARK  173  A    between atoms: _429  and  _431
REMARK  174  A    between atoms: _431  and  _432
REMARK  175  A    between atoms: _431  and  _434
REMARK  176  A    between atoms: _434  and  _435
REMARK  177  A    between atoms: _445  and  _447
REMARK  178  A    between atoms: _447  and  _448
REMARK  179  A    between atoms: _447  and  _450
REMARK  180  A    between atoms: _450  and  _451
REMARK  181  A    between atoms: _456  and  _457
REMARK  182  A    between atoms: _459  and  _461
REMARK  183  A    between atoms: _461  and  _462
REMARK  184  A    between atoms: _461  and  _464
REMARK  185  A    between atoms: _464  and  _465
REMARK  186  A    between atoms: _470  and  _471
REMARK  187  A    between atoms: _473  and  _475
REMARK  188  A    between atoms: _475  and  _476
REMARK  189  A    between atoms: _475  and  _478
REMARK  190  A    between atoms: _478  and  _479
REMARK  191  A    between atoms: _482  and  _484
REMARK  192  A    between atoms: _484  and  _485
REMARK  193  A    between atoms: _484  and  _487
REMARK  194  A    between atoms: _487  and  _488
REMARK  195  A    between atoms: _488  and  _489
REMARK  196  A    between atoms: _489  and  _490
REMARK  197  A    between atoms: _490  and  _491
REMARK  198  A    between atoms: _495  and  _497
REMARK  199  A    between atoms: _497  and  _498
REMARK  200  A    between atoms: _497  and  _500
REMARK  201  A    between atoms: _500  and  _501
REMARK  202  A    between atoms: _504  and  _506
REMARK  203  A    between atoms: _506  and  _507
REMARK  204  A    between atoms: _506  and  _509
REMARK  205  A    between atoms: _512  and  _514
REMARK  206  A    between atoms: _514  and  _515
REMARK  207  A    between atoms: _514  and  _517
REMARK  208  A    between atoms: _517  and  _518
REMARK  209  A    between atoms: _521  and  _523
REMARK  210  A    between atoms: _523  and  _524
REMARK  211  A    between atoms: _523  and  _526
REMARK  212  A    between atoms: _526  and  _527
REMARK  213  A    between atoms: _529  and  _531
REMARK  214  A    between atoms: _531  and  _532
REMARK  215  A    between atoms: _534  and  _536
REMARK  216  A    between atoms: _536  and  _537
REMARK  217  A    between atoms: _536  and  _539
REMARK  218  A    between atoms: _539  and  _540
REMARK  219  A    between atoms: _543  and  _545
REMARK  220  A    between atoms: _545  and  _546
REMARK  221  A    between atoms: _545  and  _548
REMARK  222  A    between atoms: _548  and  _549
REMARK  223  A    between atoms: _552  and  _554
REMARK  224  A    between atoms: _554  and  _555
REMARK  225  A    between atoms: _554  and  _557
REMARK  226  A    between atoms: _557  and  _558
REMARK  227  A    between atoms: _563  and  _565
REMARK  228  A    between atoms: _565  and  _566
REMARK  229  A    between atoms: _565  and  _568
REMARK  230  A    between atoms: _568  and  _569
REMARK  231  A    between atoms: _572  and  _574
REMARK  232  A    between atoms: _574  and  _575
REMARK  233  A    between atoms: _574  and  _577
REMARK  234  A    between atoms: _577  and  _578
REMARK  235  A    between atoms: _578  and  _579
REMARK  236  A    between atoms: _579  and  _580
REMARK  237  A    between atoms: _589  and  _591
REMARK  238  A    between atoms: _591  and  _592
REMARK  239  A    between atoms: _591  and  _594
REMARK  240  A    between atoms: _594  and  _595
REMARK  241  A    between atoms: _598  and  _600
REMARK  242  A    between atoms: _600  and  _601
REMARK  243  A    between atoms: _600  and  _603
REMARK  244  A    between atoms: _603  and  _604
REMARK  245  A    between atoms: _604  and  _605
REMARK  246  A    between atoms: _605  and  _606
REMARK  247  A    between atoms: _615  and  _617
REMARK  248  A    between atoms: _617  and  _618
REMARK  249  A    between atoms: _617  and  _620
REMARK  250  A    between atoms: _620  and  _621
REMARK  251  A    between atoms: _621  and  _622
REMARK  252  A    between atoms: _622  and  _623
REMARK  253  A    between atoms: _623  and  _624
REMARK  254  A    between atoms: _628  and  _630
REMARK  255  A    between atoms: _630  and  _631
REMARK  256  A    between atoms: _630  and  _633
REMARK  257  A    between atoms: _633  and  _634
REMARK  258  A    between atoms: _640  and  _642
REMARK  259  A    between atoms: _642  and  _643
REMARK  260  A    between atoms: _646  and  _648
REMARK  261  A    between atoms: _648  and  _649
REMARK  262  A    between atoms: _648  and  _651
REMARK  263  A    between atoms: _651  and  _652
REMARK  264  A    between atoms: _655  and  _657
REMARK  265  A    between atoms: _657  and  _658
REMARK  266  A    between atoms: _657  and  _660
REMARK  267  A    between atoms: _660  and  _661
REMARK  268  A    between atoms: _663  and  _665
REMARK  269  A    between atoms: _665  and  _666
REMARK  270  A    between atoms: _665  and  _668
REMARK  271  A    between atoms: _668  and  _669
REMARK  272  A    between atoms: _669  and  _670
REMARK  273  A    between atoms: _675  and  _677
REMARK  274  A    between atoms: _677  and  _678
REMARK  275  A    between atoms: _677  and  _680
REMARK  276  A    between atoms: _680  and  _681
REMARK  277  A    between atoms: _683  and  _685
REMARK  278  A    between atoms: _685  and  _686
REMARK  279  A    between atoms: _685  and  _688
REMARK  280  A    between atoms: _688  and  _689
REMARK  281  A    between atoms: _691  and  _693
REMARK  282  A    between atoms: _693  and  _694
REMARK  283  A    between atoms: _693  and  _696
REMARK  284  A    between atoms: _696  and  _697
REMARK  285  A    between atoms: _700  and  _702
REMARK  286  A    between atoms: _702  and  _703
REMARK  287  A    between atoms: _705  and  _707
REMARK  288  A    between atoms: _707  and  _708
REMARK  289  A    between atoms: _707  and  _710
REMARK  290  A    between atoms: _710  and  _711
REMARK  291  A    between atoms: _714  and  _716
REMARK  292  A    between atoms: _716  and  _717
REMARK  293  A    between atoms: _716  and  _719
REMARK  294  A    between atoms: _722  and  _724
REMARK  295  A    between atoms: _724  and  _725
REMARK  296  A    between atoms: _724  and  _727
REMARK  297  A    between atoms: _727  and  _728
REMARK  298  A    between atoms: _728  and  _729
REMARK  299  A    between atoms: _731  and  _733
REMARK  300  A    between atoms: _733  and  _734
REMARK  301  A    between atoms: _736  and  _738
REMARK  302  A    between atoms: _738  and  _739
REMARK  303  A    between atoms: _742  and  _744
REMARK  304  A    between atoms: _744  and  _745
REMARK  305  A    between atoms: _744  and  _747
REMARK  306  A    between atoms: _750  and  _752
REMARK  307  A    between atoms: _752  and  _753
REMARK  308  A    between atoms: _752  and  _755
REMARK  309  A    between atoms: _755  and  _756
REMARK  310  A    between atoms: _756  and  _757
REMARK                            x       y       z     vdW  Elec       q    Type
REMARK                         _______ _______ _______ _____ _____    ______ ____
ROOT
ATOM      1  CA  SER A   1      -2.962  27.165  23.381  0.00  0.00    +0.163 C 
ENDROOT
BRANCH   1   2
ATOM      2  N   SER A   1      -2.360  28.522  23.421  0.00  0.00    -0.237 NA
ATOM      3  H   SER A   1      -2.180  28.959  24.348  0.00  0.00    +0.142 HD
ENDBRANCH   1   2
BRANCH   1   4
ATOM      4  C   SER A   1      -4.446  27.231  23.043  0.00  0.00    +0.227 C 
ATOM      5  O   SER A   1      -5.030  26.268  22.562  0.00  0.00    -0.287 OA
ENDBRANCH   1   4
BRANCH   1   6
ATOM      6  CB  SER A   1      -2.766  26.481  24.731  0.00  0.00    +0.162 C 
BRANCH   6   7
ATOM      7  OG  SER A   1      -3.616  27.103  25.704  0.00  0.00    -0.380 OA
ATOM      8  H   SER A   1      -3.491  26.661  26.581  0.00  0.00    +0.211 HD
ENDBRANCH   6   7
ENDBRANCH   1   6
TORSDOF 4
REMARK  Name = ../refined-set-2016/3i25/3i25_pocket.pdb
REMARK  310 active torsions:
REMARK  status: ('A' for Active; 'I' for Inactive)
REMARK    1  A    between atoms: _1  and  _3
REMARK    2  A    between atoms: _3  and  _4
REMARK    3  A    between atoms: _3  and  _6
REMARK    4  A    between atoms: _6  and  _7
REMARK    5  A    between atoms: _7  and  _8
REMARK    6  A    between atoms: _8  and  _9
REMARK    7  A    between atoms: _9  and  _10
REMARK    8  A    between atoms: _14  and  _16
REMARK    9  A    between atoms: _16  and  _17
REMARK   10  A    between atoms: _16  and  _19
REMARK   11  A    between atoms: _19  and  _20
REMARK   12  A    between atoms: _22  and  _24
REMARK   13  A    between atoms: _24  and  _25
REMARK   14  A    between atoms: _27  and  _29
REMARK   15  A    between atoms: _29  and  _30
REMARK   16  A    between atoms: _29  and  _32
REMARK   17  A    between atoms: _32  and  _33
REMARK   18  A    between atoms: _33  and  _34
REMARK   19  A    between atoms: _39  and  _41
REMARK   20  A    between atoms: _41  and  _42
REMARK   21  A    between atoms: _44  and  _46
REMARK   22  A    between atoms: _46  and  _47
REMARK   23  A    between atoms: _46  and  _49
REMARK   24  A    between atoms: _49  and  _50
REMARK   25  A    between atoms: _55  and  _56
REMARK   26  A    between atoms: _58  and  _60
REMARK   27  A    between atoms: _60  and  _61
REMARK   28  A    between atoms: _60  and  _63
REMARK   29  A    between atoms: _63  and  _64
REMARK   30  A    between atoms: _67  and  _69
REMARK   31  A    between atoms: _69  and  _70
REMARK   32  A    between atoms: _69  and  _72
REMARK   33  A    between atoms: _75  and  _77
REMARK   34  A    between atoms: _77  and  _78
REMARK   35  A    between atoms: _77  and  _80
REMARK   36  A    between atoms: _80  and  _81
REMARK   37  A    between atoms: _84  and  _86
REMARK   38  A    between atoms: _86  and  _87
REMARK   39  A    between atoms: _86  and  _89
REMARK   40  A    between atoms: _89  and  _90
REMARK   41  A    between atoms: _93  and  _95
REMARK   42  A    between atoms: _95  and  _96
REMARK   43  A    between atoms: _98  and  _100
REMARK   44  A    between atoms: _100  and  _101
REMARK   45  A    between atoms: _100  and  _103
REMARK   46  A    between atoms: _103  and  _104
REMARK   47  A    between atoms: _106  and  _108
REMARK   48  A    between atoms: _108  and  _109
REMARK   49  A    between atoms: _108  and  _111
REMARK   50  A    between atoms: _111  and  _112
REMARK   51  A    between atoms: _114  and  _116
REMARK   52  A    between atoms: _116  and  _117
REMARK   53  A    between atoms: _116  and  _119
REMARK   54  A    between atoms: _119  and  _120
REMARK   55  A    between atoms: _125  and  _127
REMARK   56  A    between atoms: _127  and  _128
REMARK   57  A    between atoms: _127  and  _130
REMARK   58  A    between atoms: _130  and  _131
REMARK   59  A    between atoms: _136  and  _137
REMARK   60  A    between atoms: _139  and  _141
REMARK   61  A    between atoms: _141  and  _142
REMARK   62  A    between atoms: _141  and  _144
REMARK   63  A    between atoms: _148  and  _149
REMARK   64  A    between atoms: _154  and  _156
REMARK   65  A    between atoms: _156  and  _157
REMARK   66  A    between atoms: _156  and  _159
REMARK   67  A    between atoms: _159  and  _160
REMARK   68  A    between atoms: _165  and  _166
REMARK   69  A    between atoms: _168  and  _170
REMARK   70  A    between atoms: _170  and  _171
REMARK   71  A    between atoms: _170  and  _173
REMARK   72  A    between atoms: _173  and  _174
REMARK   73  A    between atoms: _177  and  _179
REMARK   74  A    between atoms: _179  and  _180
REMARK   75  A    between atoms: _179  and  _182
REMARK   76  A    between atoms: _182  and  _183
REMARK   77  A    between atoms: _183  and  _184
REMARK   78  A    between atoms: _189  and  _191
REMARK   79  A    between atoms: _191  and  _192
REMARK   80  A    between atoms: _194  and  _196
REMARK   81  A    between atoms: _196  and  _197
REMARK   82  A    between atoms: _196  and  _199
REMARK   83  A    between atoms: _199  and  _200
REMARK   84  A    between atoms: _200  and  _201
REMARK   85  A    between atoms: _201  and  _202
REMARK   86  A    between atoms: _202  and  _203
REMARK   87  A    between atoms: _207  and  _209
REMARK   88  A    between atoms: _209  and  _210
REMARK   89  A    between atoms: _209  and  _212
REMARK   90  A    between atoms: _212  and  _213
REMARK   91  A    between atoms: _223  and  _225
REMARK   92  A    between atoms: _225  and  _226
REMARK   93  A    between atoms: _225  and  _228
REMARK   94  A    between atoms: _228  and  _229
REMARK   95  A    between atoms: _232  and  _234
REMARK   96  A    between atoms: _234  and  _235
REMARK   97  A    between atoms: _234  and  _237
REMARK   98  A    between atoms: _237  and  _238
REMARK   99  A    between atoms: _238  and  _239
REMARK  100  A    between atoms: _239  and  _240
REMARK  101  A    between atoms: _240  and  _241
REMARK  102  A    between atoms: _245  and  _247
REMARK  103  A    between atoms: _247  and  _248
REMARK  104  A    between atoms: _247  and  _250
REMARK  105  A    between atoms: _250  and  _251
REMARK  106  A    between atoms: _257  and  _259
REMARK  107  A    between atoms: _259  and  _260
REMARK  108  A    between atoms: _259  and  _262
REMARK  109  A    between atoms: _262  and  _263
REMARK  110  A    between atoms: _269  and  _271
REMARK  111  A    between atoms: _271  and  _272
REMARK  112  A    between atoms: _271  and  _274
REMARK  113  A    between atoms: _274  and  _275
REMARK  114  A    between atoms: _278  and  _280
REMARK  115  A    between atoms: _280  and  _281
REMARK  116  A    between atoms: _280  and  _283
REMARK  117  A    between atoms: _283  and  _284
REMARK  118  A    between atoms: _289  and  _291
REMARK  119  A    between atoms: _291  and  _292
REMARK  120  A    between atoms: _291  and  _294
REMARK  121  A    between atoms: _294  and  _295
REMARK  122  A    between atoms: _297  and  _299
REMARK  123  A    between atoms: _299  and  _300
REMARK  124  A    between atoms: _299  and  _302
REMARK  125  A    between atoms: _302  and  _303
REMARK  126  A    between atoms: _313  and  _315
REMARK  127  A    between atoms: _315  and  _316
REMARK  128  A    between atoms: _318  and  _320
REMARK  129  A    between atoms: _320  and  _321
REMARK  130  A    between atoms: _320  and  _323
REMARK  131  A    between atoms: _323  and  _324
REMARK  132  A    between atoms: _327  and  _329
REMARK  133  A    between atoms: _329  and  _330
REMARK  134  A    between atoms: _329  and  _332
REMARK  135  A    between atoms: _332  and  _333
REMARK  136  A    between atoms: _336  and  _338
REMARK  137  A    between atoms: _338  and  _339
REMARK  138  A    between atoms: _341  and  _343
REMARK  139  A    between atoms: _343  and  _344
REMARK  140  A    between atoms: _343  and  _346
REMARK  141  A    between atoms: _346  and  _347
REMARK  142  A    between atoms: _350  and  _352
REMARK  143  A    between atoms: _352  and  _353
REMARK  144  A    between atoms: _356  and  _358
REMARK  145  A    between atoms: _358  and  _359
REMARK  146  A    between atoms: _358  and  _361
REMARK  147  A    between atoms: _361  and  _362
REMARK  148  A    between atoms: _367  and  _368
REMARK  149  A    between atoms: _370  and  _372
REMARK  150  A    between atoms: _372  and  _373
REMARK  151  A    between atoms: _372  and  _375
REMARK  152  A    between atoms: _375  and  _376
REMARK  153  A    between atoms: _376  and  _377
REMARK  154  A    between atoms: _380  and  _382
REMARK  155  A    between atoms: _382  and  _383
REMARK  156  A    between atoms: _382  and  _385
REMARK  157  A    between atoms: _385  and  _386
REMARK  158  A    between atoms: _389  and  _391
REMARK  159  A    between atoms: _391  and  _392
REMARK  160  A    between atoms: _395  and  _397
REMARK  161  A    between atoms: _397  and  _398
REMARK  162  A    between atoms: _397  and  _400
REMARK  163  A    between atoms: _400  and  _401
REMARK  164  A    between atoms: _401  and  _402
REMARK  165  A    between atoms: _402  and  _403
REMARK  166  A    between atoms: _412  and  _414
REMARK  167  A    between atoms: _414  and  _415
REMARK  168  A    between atoms: _414  and  _417
REMARK  169  A    between atoms: _417  and  _418
REMARK  170  A    between atoms: _421  and  _423
REMARK  171  A    between atoms: _423  and  _424
REMARK  172  A    between atoms: _423  and  _426
REMARK  173  A    between atoms: _429  and  _431
REMARK  174  A    between atoms: _431  and  _432
REMARK  175  A    between atoms: _431  and  _434
REMARK  176  A    between atoms: _434  and  _435
REMARK  177  A    between atoms: _445  and  _447
REMARK  178  A    between atoms: _447  and  _448
REMARK  179  A    between atoms: _447  and  _450
REMARK  180  A    between atoms: _450  and  _451
REMARK  181  A    between atoms: _456  and  _457
REMARK  182  A    between atoms: _459  and  _461
REMARK  183  A    between atoms: _461  and  _462
REMARK  184  A    between atoms: _461  and  _464
REMARK  185  A    between atoms: _464  and  _465
REMARK  186  A    between atoms: _470  and  _471
REMARK  187  A    between atoms: _473  and  _475
REMARK  188  A    between atoms: _475  and  _476
REMARK  189  A    between atoms: _475  and  _478
REMARK  190  A    between atoms: _478  and  _479
REMARK  191  A    between atoms: _482  and  _484
REMARK  192  A    between atoms: _484  and  _485
REMARK  193  A    between atoms: _484  and  _487
REMARK  194  A    between atoms: _487  and  _488
REMARK  195  A    between atoms: _488  and  _489
REMARK  196  A    between atoms: _489  and  _490
REMARK  197  A    between atoms: _490  and  _491
REMARK  198  A    between atoms: _495  and  _497
REMARK  199  A    between atoms: _497  and  _498
REMARK  200  A    between atoms: _497  and  _500
REMARK  201  A    between atoms: _500  and  _501
REMARK  202  A    between atoms: _504  and  _506
REMARK  203  A    between atoms: _506  and  _507
REMARK  204  A    between atoms: _506  and  _509
REMARK  205  A    between atoms: _512  and  _514
REMARK  206  A    between atoms: _514  and  _515
REMARK  207  A    between atoms: _514  and  _517
REMARK  208  A    between atoms: _517  and  _518
REMARK  209  A    between atoms: _521  and  _523
REMARK  210  A    between atoms: _523  and  _524
REMARK  211  A    between atoms: _523  and  _526
REMARK  212  A    between atoms: _526  and  _527
REMARK  213  A    between atoms: _529  and  _531
REMARK  214  A    between atoms: _531  and  _532
REMARK  215  A    between atoms: _534  and  _536
REMARK  216  A    between atoms: _536  and  _537
REMARK  217  A    between atoms: _536  and  _539
REMARK  218  A    between atoms: _539  and  _540
REMARK  219  A    between atoms: _543  and  _545
REMARK  220  A    between atoms: _545  and  _546
REMARK  221  A    between atoms: _545  and  _548
REMARK  222  A    between atoms: _548  and  _549
REMARK  223  A    between atoms: _552  and  _554
REMARK  224  A    between atoms: _554  and  _555
REMARK  225  A    between atoms: _554  and  _557
REMARK  226  A    between atoms: _557  and  _558
REMARK  227  A    between atoms: _563  and  _565
REMARK  228  A    between atoms: _565  and  _566
REMARK  229  A    between atoms: _565  and  _568
REMARK  230  A    between atoms: _568  and  _569
REMARK  231  A    between atoms: _572  and  _574
REMARK  232  A    between atoms: _574  and  _575
REMARK  233  A    between atoms: _574  and  _577
REMARK  234  A    between atoms: _577  and  _578
REMARK  235  A    between atoms: _578  and  _579
REMARK  236  A    between atoms: _579  and  _580
REMARK  237  A    between atoms: _589  and  _591
REMARK  238  A    between atoms: _591  and  _592
REMARK  239  A    between atoms: _591  and  _594
REMARK  240  A    between atoms: _594  and  _595
REMARK  241  A    between atoms: _598  and  _600
REMARK  242  A    between atoms: _600  and  _601
REMARK  243  A    between atoms: _600  and  _603
REMARK  244  A    between atoms: _603  and  _604
REMARK  245  A    between atoms: _604  and  _605
REMARK  246  A    between atoms: _605  and  _606
REMARK  247  A    between atoms: _615  and  _617
REMARK  248  A    between atoms: _617  and  _618
REMARK  249  A    between atoms: _617  and  _620
REMARK  250  A    between atoms: _620  and  _621
REMARK  251  A    between atoms: _621  and  _622
REMARK  252  A    between atoms: _622  and  _623
REMARK  253  A    between atoms: _623  and  _624
REMARK  254  A    between atoms: _628  and  _630
REMARK  255  A    between atoms: _630  and  _631
REMARK  256  A    between atoms: _630  and  _633
REMARK  257  A    between atoms: _633  and  _634
REMARK  258  A    between atoms: _640  and  _642
REMARK  259  A    between atoms: _642  and  _643
REMARK  260  A    between atoms: _646  and  _648
REMARK  261  A    between atoms: _648  and  _649
REMARK  262  A    between atoms: _648  and  _651
REMARK  263  A    between atoms: _651  and  _652
REMARK  264  A    between atoms: _655  and  _657
REMARK  265  A    between atoms: _657  and  _658
REMARK  266  A    between atoms: _657  and  _660
REMARK  267  A    between atoms: _660  and  _661
REMARK  268  A    between atoms: _663  and  _665
REMARK  269  A    between atoms: _665  and  _666
REMARK  270  A    between atoms: _665  and  _668
REMARK  271  A    between atoms: _668  and  _669
REMARK  272  A    between atoms: _669  and  _670
REMARK  273  A    between atoms: _675  and  _677
REMARK  274  A    between atoms: _677  and  _678
REMARK  275  A    between atoms: _677  and  _680
REMARK  276  A    between atoms: _680  and  _681
REMARK  277  A    between atoms: _683  and  _685
REMARK  278  A    between atoms: _685  and  _686
REMARK  279  A    between atoms: _685  and  _688
REMARK  280  A    between atoms: _688  and  _689
REMARK  281  A    between atoms: _691  and  _693
REMARK  282  A    between atoms: _693  and  _694
REMARK  283  A    between atoms: _693  and  _696
REMARK  284  A    between atoms: _696  and  _697
REMARK  285  A    between atoms: _700  and  _702
REMARK  286  A    between atoms: _702  and  _703
REMARK  287  A    between atoms: _705  and  _707
REMARK  288  A    between atoms: _707  and  _708
REMARK  289  A    between atoms: _707  and  _710
REMARK  290  A    between atoms: _710  and  _711
REMARK  291  A    between atoms: _714  and  _716
REMARK  292  A    between atoms: _716  and  _717
REMARK  293  A    between atoms: _716  and  _719
REMARK  294  A    between atoms: _722  and  _724
REMARK  295  A    between atoms: _724  and  _725
REMARK  296  A    between atoms: _724  and  _727
REMARK  297  A    between atoms: _727  and  _728
REMARK  298  A    between atoms: _728  and  _729
REMARK  299  A    between atoms: _731  and  _733
REMARK  300  A    between atoms: _733  and  _734
REMARK  301  A    between atoms: _736  and  _738
REMARK  302  A    between atoms: _738  and  _739
REMARK  303  A    between atoms: _742  and  _744
REMARK  304  A    between atoms: _744  and  _745
REMARK  305  A    between atoms: _744  and  _747
REMARK  306  A    between atoms: _750  and  _752
REMARK  307  A    between atoms: _752  and  _753
REMARK  308  A    between atoms: _752  and  _755
REMARK  309  A    between atoms: _755  and  _756
REMARK  310  A    between atoms: _756  and  _757
REMARK                            x       y       z     vdW  Elec       q    Type
REMARK                         _______ _______ _______ _____ _____    ______ ____
ROOT
ATOM      1  CG  TRP A   1      -6.517  24.953  26.687  0.00  0.00    -0.002 A 
ATOM      2  CD2 TRP A   1      -5.887  24.918  27.991  0.00  0.00    +0.013 A 
ATOM      3  CE3 TRP A   1      -6.276  25.327  29.286  0.00  0.00    +0.001 A 
ATOM      4  CZ3 TRP A   1      -5.360  25.157  30.359  0.00  0.00    +0.000 A 
ATOM      5  CH2 TRP A   1      -4.091  24.609  30.135  0.00  0.00    +0.001 A 
ATOM      6  CZ2 TRP A   1      -3.701  24.181  28.887  0.00  0.00    +0.017 A 
ATOM      7  CE2 TRP A   1      -4.609  24.364  27.814  0.00  0.00    +0.056 A 
ATOM      8  NE1 TRP A   1      -4.474  24.065  26.481  0.00  0.00    -0.352 N 
ATOM      9  HE1 TRP A   1      -3.626  23.653  26.043  0.00  0.00    +0.166 HD
ATOM     10  CD1 TRP A   1      -5.617  24.389  25.821  0.00  0.00    +0.068 A 
ENDROOT
BRANCH   1  11
ATOM     11  CB  TRP A   1      -7.895  25.481  26.338  0.00  0.00    +0.053 C 
BRANCH  11  12
ATOM     12  CA  TRP A   1      -7.995  27.030  26.117  0.00  0.00    +0.137 C 
BRANCH  12  13
ATOM     13  N   TRP A   1      -7.047  27.528  25.112  0.00  0.00    -0.239 NA
ATOM     14  H   TRP A   1      -6.024  27.471  25.293  0.00  0.00    +0.142 HD
ENDBRANCH  12  13
BRANCH  12  15
ATOM     15  C   TRP A   1      -7.896  27.840  27.432  0.00  0.00    +0.224 C 
ATOM     16  O   TRP A   1      -6.836  28.327  27.797  0.00  0.00    -0.287 OA
ENDBRANCH  12  15
ENDBRANCH  11  12
ENDBRANCH   1  11
TORSDOF 4
REMARK  Name = ../refined-set-2016/3i25/3i25_pocket.pdb
REMARK  310 active torsions:
REMARK  status: ('A' for Active; 'I' for Inactive)
REMARK    1  A    between atoms: _1  and  _3
REMARK    2  A    between atoms: _3  and  _4
REMARK    3  A    between atoms: _3  and  _6
REMARK    4  A    between atoms: _6  and  _7
REMARK    5  A    between atoms: _7  and  _8
REMARK    6  A    between atoms: _8  and  _9
REMARK    7  A    between atoms: _9  and  _10
REMARK    8  A    between atoms: _14  and  _16
REMARK    9  A    between atoms: _16  and  _17
REMARK   10  A    between atoms: _16  and  _19
REMARK   11  A    between atoms: _19  and  _20
REMARK   12  A    between atoms: _22  and  _24
REMARK   13  A    between atoms: _24  and  _25
REMARK   14  A    between atoms: _27  and  _29
REMARK   15  A    between atoms: _29  and  _30
REMARK   16  A    between atoms: _29  and  _32
REMARK   17  A    between atoms: _32  and  _33
REMARK   18  A    between atoms: _33  and  _34
REMARK   19  A    between atoms: _39  and  _41
REMARK   20  A    between atoms: _41  and  _42
REMARK   21  A    between atoms: _44  and  _46
REMARK   22  A    between atoms: _46  and  _47
REMARK   23  A    between atoms: _46  and  _49
REMARK   24  A    between atoms: _49  and  _50
REMARK   25  A    between atoms: _55  and  _56
REMARK   26  A    between atoms: _58  and  _60
REMARK   27  A    between atoms: _60  and  _61
REMARK   28  A    between atoms: _60  and  _63
REMARK   29  A    between atoms: _63  and  _64
REMARK   30  A    between atoms: _67  and  _69
REMARK   31  A    between atoms: _69  and  _70
REMARK   32  A    between atoms: _69  and  _72
REMARK   33  A    between atoms: _75  and  _77
REMARK   34  A    between atoms: _77  and  _78
REMARK   35  A    between atoms: _77  and  _80
REMARK   36  A    between atoms: _80  and  _81
REMARK   37  A    between atoms: _84  and  _86
REMARK   38  A    between atoms: _86  and  _87
REMARK   39  A    between atoms: _86  and  _89
REMARK   40  A    between atoms: _89  and  _90
REMARK   41  A    between atoms: _93  and  _95
REMARK   42  A    between atoms: _95  and  _96
REMARK   43  A    between atoms: _98  and  _100
REMARK   44  A    between atoms: _100  and  _101
REMARK   45  A    between atoms: _100  and  _103
REMARK   46  A    between atoms: _103  and  _104
REMARK   47  A    between atoms: _106  and  _108
REMARK   48  A    between atoms: _108  and  _109
REMARK   49  A    between atoms: _108  and  _111
REMARK   50  A    between atoms: _111  and  _112
REMARK   51  A    between atoms: _114  and  _116
REMARK   52  A    between atoms: _116  and  _117
REMARK   53  A    between atoms: _116  and  _119
REMARK   54  A    between atoms: _119  and  _120
REMARK   55  A    between atoms: _125  and  _127
REMARK   56  A    between atoms: _127  and  _128
REMARK   57  A    between atoms: _127  and  _130
REMARK   58  A    between atoms: _130  and  _131
REMARK   59  A    between atoms: _136  and  _137
REMARK   60  A    between atoms: _139  and  _141
REMARK   61  A    between atoms: _141  and  _142
REMARK   62  A    between atoms: _141  and  _144
REMARK   63  A    between atoms: _148  and  _149
REMARK   64  A    between atoms: _154  and  _156
REMARK   65  A    between atoms: _156  and  _157
REMARK   66  A    between atoms: _156  and  _159
REMARK   67  A    between atoms: _159  and  _160
REMARK   68  A    between atoms: _165  and  _166
REMARK   69  A    between atoms: _168  and  _170
REMARK   70  A    between atoms: _170  and  _171
REMARK   71  A    between atoms: _170  and  _173
REMARK   72  A    between atoms: _173  and  _174
REMARK   73  A    between atoms: _177  and  _179
REMARK   74  A    between atoms: _179  and  _180
REMARK   75  A    between atoms: _179  and  _182
REMARK   76  A    between atoms: _182  and  _183
REMARK   77  A    between atoms: _183  and  _184
REMARK   78  A    between atoms: _189  and  _191
REMARK   79  A    between atoms: _191  and  _192
REMARK   80  A    between atoms: _194  and  _196
REMARK   81  A    between atoms: _196  and  _197
REMARK   82  A    between atoms: _196  and  _199
REMARK   83  A    between atoms: _199  and  _200
REMARK   84  A    between atoms: _200  and  _201
REMARK   85  A    between atoms: _201  and  _202
REMARK   86  A    between atoms: _202  and  _203
REMARK   87  A    between atoms: _207  and  _209
REMARK   88  A    between atoms: _209  and  _210
REMARK   89  A    between atoms: _209  and  _212
REMARK   90  A    between atoms: _212  and  _213
REMARK   91  A    between atoms: _223  and  _225
REMARK   92  A    between atoms: _225  and  _226
REMARK   93  A    between atoms: _225  and  _228
REMARK   94  A    between atoms: _228  and  _229
REMARK   95  A    between atoms: _232  and  _234
REMARK   96  A    between atoms: _234  and  _235
REMARK   97  A    between atoms: _234  and  _237
REMARK   98  A    between atoms: _237  and  _238
REMARK   99  A    between atoms: _238  and  _239
REMARK  100  A    between atoms: _239  and  _240
REMARK  101  A    between atoms: _240  and  _241
REMARK  102  A    between atoms: _245  and  _247
REMARK  103  A    between atoms: _247  and  _248
REMARK  104  A    between atoms: _247  and  _250
REMARK  105  A    between atoms: _250  and  _251
REMARK  106  A    between atoms: _257  and  _259
REMARK  107  A    between atoms: _259  and  _260
REMARK  108  A    between atoms: _259  and  _262
REMARK  109  A    between atoms: _262  and  _263
REMARK  110  A    between atoms: _269  and  _271
REMARK  111  A    between atoms: _271  and  _272
REMARK  112  A    between atoms: _271  and  _274
REMARK  113  A    between atoms: _274  and  _275
REMARK  114  A    between atoms: _278  and  _280
REMARK  115  A    between atoms: _280  and  _281
REMARK  116  A    between atoms: _280  and  _283
REMARK  117  A    between atoms: _283  and  _284
REMARK  118  A    between atoms: _289  and  _291
REMARK  119  A    between atoms: _291  and  _292
REMARK  120  A    between atoms: _291  and  _294
REMARK  121  A    between atoms: _294  and  _295
REMARK  122  A    between atoms: _297  and  _299
REMARK  123  A    between atoms: _299  and  _300
REMARK  124  A    between atoms: _299  and  _302
REMARK  125  A    between atoms: _302  and  _303
REMARK  126  A    between atoms: _313  and  _315
REMARK  127  A    between atoms: _315  and  _316
REMARK  128  A    between atoms: _318  and  _320
REMARK  129  A    between atoms: _320  and  _321
REMARK  130  A    between atoms: _320  and  _323
REMARK  131  A    between atoms: _323  and  _324
REMARK  132  A    between atoms: _327  and  _329
REMARK  133  A    between atoms: _329  and  _330
REMARK  134  A    between atoms: _329  and  _332
REMARK  135  A    between atoms: _332  and  _333
REMARK  136  A    between atoms: _336  and  _338
REMARK  137  A    between atoms: _338  and  _339
REMARK  138  A    between atoms: _341  and  _343
REMARK  139  A    between atoms: _343  and  _344
REMARK  140  A    between atoms: _343  and  _346
REMARK  141  A    between atoms: _346  and  _347
REMARK  142  A    between atoms: _350  and  _352
REMARK  143  A    between atoms: _352  and  _353
REMARK  144  A    between atoms: _356  and  _358
REMARK  145  A    between atoms: _358  and  _359
REMARK  146  A    between atoms: _358  and  _361
REMARK  147  A    between atoms: _361  and  _362
REMARK  148  A    between atoms: _367  and  _368
REMARK  149  A    between atoms: _370  and  _372
REMARK  150  A    between atoms: _372  and  _373
REMARK  151  A    between atoms: _372  and  _375
REMARK  152  A    between atoms: _375  and  _376
REMARK  153  A    between atoms: _376  and  _377
REMARK  154  A    between atoms: _380  and  _382
REMARK  155  A    between atoms: _382  and  _383
REMARK  156  A    between atoms: _382  and  _385
REMARK  157  A    between atoms: _385  and  _386
REMARK  158  A    between atoms: _389  and  _391
REMARK  159  A    between atoms: _391  and  _392
REMARK  160  A    between atoms: _395  and  _397
REMARK  161  A    between atoms: _397  and  _398
REMARK  162  A    between atoms: _397  and  _400
REMARK  163  A    between atoms: _400  and  _401
REMARK  164  A    between atoms: _401  and  _402
REMARK  165  A    between atoms: _402  and  _403
REMARK  166  A    between atoms: _412  and  _414
REMARK  167  A    between atoms: _414  and  _415
REMARK  168  A    between atoms: _414  and  _417
REMARK  169  A    between atoms: _417  and  _418
REMARK  170  A    between atoms: _421  and  _423
REMARK  171  A    between atoms: _423  and  _424
REMARK  172  A    between atoms: _423  and  _426
REMARK  173  A    between atoms: _429  and  _431
REMARK  174  A    between atoms: _431  and  _432
REMARK  175  A    between atoms: _431  and  _434
REMARK  176  A    between atoms: _434  and  _435
REMARK  177  A    between atoms: _445  and  _447
REMARK  178  A    between atoms: _447  and  _448
REMARK  179  A    between atoms: _447  and  _450
REMARK  180  A    between atoms: _450  and  _451
REMARK  181  A    between atoms: _456  and  _457
REMARK  182  A    between atoms: _459  and  _461
REMARK  183  A    between atoms: _461  and  _462
REMARK  184  A    between atoms: _461  and  _464
REMARK  185  A    between atoms: _464  and  _465
REMARK  186  A    between atoms: _470  and  _471
REMARK  187  A    between atoms: _473  and  _475
REMARK  188  A    between atoms: _475  and  _476
REMARK  189  A    between atoms: _475  and  _478
REMARK  190  A    between atoms: _478  and  _479
REMARK  191  A    between atoms: _482  and  _484
REMARK  192  A    between atoms: _484  and  _485
REMARK  193  A    between atoms: _484  and  _487
REMARK  194  A    between atoms: _487  and  _488
REMARK  195  A    between atoms: _488  and  _489
REMARK  196  A    between atoms: _489  and  _490
REMARK  197  A    between atoms: _490  and  _491
REMARK  198  A    between atoms: _495  and  _497
REMARK  199  A    between atoms: _497  and  _498
REMARK  200  A    between atoms: _497  and  _500
REMARK  201  A    between atoms: _500  and  _501
REMARK  202  A    between atoms: _504  and  _506
REMARK  203  A    between atoms: _506  and  _507
REMARK  204  A    between atoms: _506  and  _509
REMARK  205  A    between atoms: _512  and  _514
REMARK  206  A    between atoms: _514  and  _515
REMARK  207  A    between atoms: _514  and  _517
REMARK  208  A    between atoms: _517  and  _518
REMARK  209  A    between atoms: _521  and  _523
REMARK  210  A    between atoms: _523  and  _524
REMARK  211  A    between atoms: _523  and  _526
REMARK  212  A    between atoms: _526  and  _527
REMARK  213  A    between atoms: _529  and  _531
REMARK  214  A    between atoms: _531  and  _532
REMARK  215  A    between atoms: _534  and  _536
REMARK  216  A    between atoms: _536  and  _537
REMARK  217  A    between atoms: _536  and  _539
REMARK  218  A    between atoms: _539  and  _540
REMARK  219  A    between atoms: _543  and  _545
REMARK  220  A    between atoms: _545  and  _546
REMARK  221  A    between atoms: _545  and  _548
REMARK  222  A    between atoms: _548  and  _549
REMARK  223  A    between atoms: _552  and  _554
REMARK  224  A    between atoms: _554  and  _555
REMARK  225  A    between atoms: _554  and  _557
REMARK  226  A    between atoms: _557  and  _558
REMARK  227  A    between atoms: _563  and  _565
REMARK  228  A    between atoms: _565  and  _566
REMARK  229  A    between atoms: _565  and  _568
REMARK  230  A    between atoms: _568  and  _569
REMARK  231  A    between atoms: _572  and  _574
REMARK  232  A    between atoms: _574  and  _575
REMARK  233  A    between atoms: _574  and  _577
REMARK  234  A    between atoms: _577  and  _578
REMARK  235  A    between atoms: _578  and  _579
REMARK  236  A    between atoms: _579  and  _580
REMARK  237  A    between atoms: _589  and  _591
REMARK  238  A    between atoms: _591  and  _592
REMARK  239  A    between atoms: _591  and  _594
REMARK  240  A    between atoms: _594  and  _595
REMARK  241  A    between atoms: _598  and  _600
REMARK  242  A    between atoms: _600  and  _601
REMARK  243  A    between atoms: _600  and  _603
REMARK  244  A    between atoms: _603  and  _604
REMARK  245  A    between atoms: _604  and  _605
REMARK  246  A    between atoms: _605  and  _606
REMARK  247  A    between atoms: _615  and  _617
REMARK  248  A    between atoms: _617  and  _618
REMARK  249  A    between atoms: _617  and  _620
REMARK  250  A    between atoms: _620  and  _621
REMARK  251  A    between atoms: _621  and  _622
REMARK  252  A    between atoms: _622  and  _623
REMARK  253  A    between atoms: _623  and  _624
REMARK  254  A    between atoms: _628  and  _630
REMARK  255  A    between atoms: _630  and  _631
REMARK  256  A    between atoms: _630  and  _633
REMARK  257  A    between atoms: _633  and  _634
REMARK  258  A    between atoms: _640  and  _642
REMARK  259  A    between atoms: _642  and  _643
REMARK  260  A    between atoms: _646  and  _648
REMARK  261  A    between atoms: _648  and  _649
REMARK  262  A    between atoms: _648  and  _651
REMARK  263  A    between atoms: _651  and  _652
REMARK  264  A    between atoms: _655  and  _657
REMARK  265  A    between atoms: _657  and  _658
REMARK  266  A    between atoms: _657  and  _660
REMARK  267  A    between atoms: _660  and  _661
REMARK  268  A    between atoms: _663  and  _665
REMARK  269  A    between atoms: _665  and  _666
REMARK  270  A    between atoms: _665  and  _668
REMARK  271  A    between atoms: _668  and  _669
REMARK  272  A    between atoms: _669  and  _670
REMARK  273  A    between atoms: _675  and  _677
REMARK  274  A    between atoms: _677  and  _678
REMARK  275  A    between atoms: _677  and  _680
REMARK  276  A    between atoms: _680  and  _681
REMARK  277  A    between atoms: _683  and  _685
REMARK  278  A    between atoms: _685  and  _686
REMARK  279  A    between atoms: _685  and  _688
REMARK  280  A    between atoms: _688  and  _689
REMARK  281  A    between atoms: _691  and  _693
REMARK  282  A    between atoms: _693  and  _694
REMARK  283  A    between atoms: _693  and  _696
REMARK  284  A    between atoms: _696  and  _697
REMARK  285  A    between atoms: _700  and  _702
REMARK  286  A    between atoms: _702  and  _703
REMARK  287  A    between atoms: _705  and  _707
REMARK  288  A    between atoms: _707  and  _708
REMARK  289  A    between atoms: _707  and  _710
REMARK  290  A    between atoms: _710  and  _711
REMARK  291  A    between atoms: _714  and  _716
REMARK  292  A    between atoms: _716  and  _717
REMARK  293  A    between atoms: _716  and  _719
REMARK  294  A    between atoms: _722  and  _724
REMARK  295  A    between atoms: _724  and  _725
REMARK  296  A    between atoms: _724  and  _727
REMARK  297  A    between atoms: _727  and  _728
REMARK  298  A    between atoms: _728  and  _729
REMARK  299  A    between atoms: _731  and  _733
REMARK  300  A    between atoms: _733  and  _734
REMARK  301  A    between atoms: _736  and  _738
REMARK  302  A    between atoms: _738  and  _739
REMARK  303  A    between atoms: _742  and  _744
REMARK  304  A    between atoms: _744  and  _745
REMARK  305  A    between atoms: _744  and  _747
REMARK  306  A    between atoms: _750  and  _752
REMARK  307  A    between atoms: _752  and  _753
REMARK  308  A    between atoms: _752  and  _755
REMARK  309  A    between atoms: _755  and  _756
REMARK  310  A    between atoms: _756  and  _757
REMARK                            x       y       z     vdW  Elec       q    Type
REMARK                         _______ _______ _______ _____ _____    ______ ____
ROOT
ATOM      1  C   GLY A   4     -12.171  15.634  34.617  0.00  0.00    +0.243 C 
ATOM      2  O   GLY A   4     -13.270  15.807  35.186  0.00  0.00    -0.273 OA
ATOM      3  N   LEU A   5     -11.882  14.520  33.945  0.00  0.00    -0.297 N 
ATOM      4  H   LEU A   5     -10.908  14.352  33.621  0.00  0.00    +0.150 HD
ENDROOT
BRANCH   1   5
ATOM      5  CA  GLY A   4     -11.079  16.663  34.704  0.00  0.00    +0.176 C 
BRANCH   5   7
ATOM      6  C   LEU A   3     -11.570  18.162  32.838  0.00  0.00    +0.241 C 
ATOM      7  N   GLY A   4     -11.588  17.912  34.159  0.00  0.00    -0.295 N 
ATOM      8  H   GLY A   4     -11.975  18.628  34.806  0.00  0.00    +0.150 HD
ATOM      9  O   LEU A   3     -10.977  17.438  31.999  0.00  0.00    -0.273 OA
BRANCH   6  10
ATOM     10  CA  LEU A   3     -12.294  19.429  32.393  0.00  0.00    +0.149 C 
BRANCH  10  13
ATOM     11  C   ILE A   2     -10.977  21.409  32.705  0.00  0.00    +0.241 C 
ATOM     12  O   ILE A   2     -11.656  21.791  33.649  0.00  0.00    -0.273 OA
ATOM     13  N   LEU A   3     -11.270  20.322  32.001  0.00  0.00    -0.297 N 
ATOM     14  H   LEU A   3     -10.730  20.121  31.135  0.00  0.00    +0.150 HD
BRANCH  11  15
ATOM     15  CA  ILE A   2      -9.755  22.188  32.262  0.00  0.00    +0.148 C 
BRANCH  15  17
ATOM     16  C   GLY A   1      -9.658  24.461  31.319  0.00  0.00    +0.240 C 
ATOM     17  N   ILE A   2     -10.099  23.626  32.260  0.00  0.00    -0.297 N 
ATOM     18  H   ILE A   2     -10.705  23.999  33.018  0.00  0.00    +0.150 HD
ATOM     19  O   GLY A   1      -8.978  24.101  30.330  0.00  0.00    -0.274 OA
BRANCH  16  20
ATOM     20  CA  GLY A   1     -10.030  25.927  31.538  0.00  0.00    +0.169 C 
BRANCH  20  21
ATOM     21  N   GLY A   1      -9.539  26.752  30.456  0.00  0.00    -0.236 NA
ATOM     22  H   GLY A   1      -9.208  26.296  29.582  0.00  0.00    +0.142 HD
ENDBRANCH  20  21
ENDBRANCH  16  20
ENDBRANCH  15  17
BRANCH  15  23
ATOM     23  CB  ILE A   2      -8.448  21.875  33.096  0.00  0.00    +0.027 C 
ATOM     24  CG2 ILE A   2      -8.532  22.355  34.622  0.00  0.00    +0.002 C 
BRANCH  23  25
ATOM     25  CG1 ILE A   2      -8.054  20.402  33.006  0.00  0.00    +0.002 C 
ATOM     26  CD1 ILE A   2      -6.738  20.140  33.731  0.00  0.00    +0.000 C 
ENDBRANCH  23  25
ENDBRANCH  15  23
ENDBRANCH  11  15
ENDBRANCH  10  13
BRANCH  10  27
ATOM     27  CB  LEU A   3     -13.249  19.136  31.243  0.00  0.00    +0.029 C 
BRANCH  27  28
ATOM     28  CG  LEU A   3     -14.500  18.295  31.460  0.00  0.00    +0.002 C 
ATOM     29  CD2 LEU A   3     -15.475  18.994  32.404  0.00  0.00    +0.000 C 
ATOM     30  CD1 LEU A   3     -15.180  18.050  30.130  0.00  0.00    +0.000 C 
ENDBRANCH  27  28
ENDBRANCH  10  27
ENDBRANCH   6  10
ENDBRANCH   5   7
ENDBRANCH   1   5
BRANCH   3  31
ATOM     31  CA  LEU A   5     -12.913  13.541  33.662  0.00  0.00    +0.149 C 
BRANCH  31  32
ATOM     32  C   LEU A   5     -12.740  12.282  34.469  0.00  0.00    +0.241 C 
ATOM     33  N   ALA A   6     -11.784  12.277  35.401  0.00  0.00    -0.297 N 
ATOM     34  H   ALA A   6     -11.197  13.120  35.563  0.00  0.00    +0.150 HD
ATOM     35  O   LEU A   5     -13.446  11.300  34.204  0.00  0.00    -0.273 OA
BRANCH  33  36
ATOM     36  CA  ALA A   6     -11.580  11.066  36.187  0.00  0.00    +0.149 C 
ATOM     37  CB  ALA A   6     -10.154  10.881  36.545  0.00  0.00    +0.031 C 
BRANCH  36  38
ATOM     38  C   ALA A   6     -12.518  11.074  37.412  0.00  0.00    +0.241 C 
ATOM     39  N   TYR A   7     -12.264  10.228  38.414  0.00  0.00    -0.298 N 
ATOM     40  H   TYR A   7     -11.343   9.749  38.477  0.00  0.00    +0.150 HD
ATOM     41  O   ALA A   6     -13.488  11.822  37.423  0.00  0.00    -0.273 OA
BRANCH  39  42
ATOM     42  CA  TYR A   7     -13.298   9.982  39.423  0.00  0.00    +0.141 C 
BRANCH  42  43
ATOM     43  C   TYR A   7     -13.169  10.873  40.684  0.00  0.00    +0.227 C 
ATOM     44  O   TYR A   7     -12.127  11.447  40.939  0.00  0.00    -0.286 OA
ENDBRANCH  42  43
BRANCH  42  45
ATOM     45  CB  TYR A   7     -13.290   8.514  39.808  0.00  0.00    +0.054 C 
BRANCH  45  46
ATOM     46  CG  TYR A   7     -13.549   7.539  38.669  0.00  0.00    -0.020 A 
ATOM     47  CD2 TYR A   7     -14.843   7.132  38.362  0.00  0.00    -0.001 A 
ATOM     48  CE2 TYR A   7     -15.080   6.197  37.358  0.00  0.00    +0.036 A 
ATOM     49  CZ  TYR A   7     -14.001   5.659  36.630  0.00  0.00    +0.134 A 
ATOM     50  CE1 TYR A   7     -12.706   6.011  36.908  0.00  0.00    +0.036 A 
ATOM     51  CD1 TYR A   7     -12.470   6.988  37.925  0.00  0.00    -0.001 A 
BRANCH  49  52
ATOM     52  OH  TYR A   7     -14.239   4.741  35.657  0.00  0.00    -0.506 OA
ATOM     53  HH  TYR A   7     -14.684   3.950  36.053  0.00  0.00    +0.292 HD
ENDBRANCH  49  52
ENDBRANCH  45  46
ENDBRANCH  42  45
ENDBRANCH  39  42
ENDBRANCH  36  38
ENDBRANCH  33  36
ENDBRANCH  31  32
BRANCH  31  54
ATOM     54  CB  LEU A   5     -12.918  13.155  32.144  0.00  0.00    +0.029 C 
BRANCH  54  55
ATOM     55  CG  LEU A   5     -13.413  14.255  31.185  0.00  0.00    +0.002 C 
ATOM     56  CD2 LEU A   5     -14.929  14.219  31.152  0.00  0.00    +0.000 C 
ATOM     57  CD1 LEU A   5     -12.771  14.097  29.752  0.00  0.00    +0.000 C 
ENDBRANCH  54  55
ENDBRANCH  31  54
ENDBRANCH   3  31
TORSDOF 23
REMARK  Name = ../refined-set-2016/3i25/3i25_pocket.pdb
REMARK  310 active torsions:
REMARK  status: ('A' for Active; 'I' for Inactive)
REMARK    1  A    between atoms: _1  and  _3
REMARK    2  A    between atoms: _3  and  _4
REMARK    3  A    between atoms: _3  and  _6
REMARK    4  A    between atoms: _6  and  _7
REMARK    5  A    between atoms: _7  and  _8
REMARK    6  A    between atoms: _8  and  _9
REMARK    7  A    between atoms: _9  and  _10
REMARK    8  A    between atoms: _14  and  _16
REMARK    9  A    between atoms: _16  and  _17
REMARK   10  A    between atoms: _16  and  _19
REMARK   11  A    between atoms: _19  and  _20
REMARK   12  A    between atoms: _22  and  _24
REMARK   13  A    between atoms: _24  and  _25
REMARK   14  A    between atoms: _27  and  _29
REMARK   15  A    between atoms: _29  and  _30
REMARK   16  A    between atoms: _29  and  _32
REMARK   17  A    between atoms: _32  and  _33
REMARK   18  A    between atoms: _33  and  _34
REMARK   19  A    between atoms: _39  and  _41
REMARK   20  A    between atoms: _41  and  _42
REMARK   21  A    between atoms: _44  and  _46
REMARK   22  A    between atoms: _46  and  _47
REMARK   23  A    between atoms: _46  and  _49
REMARK   24  A    between atoms: _49  and  _50
REMARK   25  A    between atoms: _55  and  _56
REMARK   26  A    between atoms: _58  and  _60
REMARK   27  A    between atoms: _60  and  _61
REMARK   28  A    between atoms: _60  and  _63
REMARK   29  A    between atoms: _63  and  _64
REMARK   30  A    between atoms: _67  and  _69
REMARK   31  A    between atoms: _69  and  _70
REMARK   32  A    between atoms: _69  and  _72
REMARK   33  A    between atoms: _75  and  _77
REMARK   34  A    between atoms: _77  and  _78
REMARK   35  A    between atoms: _77  and  _80
REMARK   36  A    between atoms: _80  and  _81
REMARK   37  A    between atoms: _84  and  _86
REMARK   38  A    between atoms: _86  and  _87
REMARK   39  A    between atoms: _86  and  _89
REMARK   40  A    between atoms: _89  and  _90
REMARK   41  A    between atoms: _93  and  _95
REMARK   42  A    between atoms: _95  and  _96
REMARK   43  A    between atoms: _98  and  _100
REMARK   44  A    between atoms: _100  and  _101
REMARK   45  A    between atoms: _100  and  _103
REMARK   46  A    between atoms: _103  and  _104
REMARK   47  A    between atoms: _106  and  _108
REMARK   48  A    between atoms: _108  and  _109
REMARK   49  A    between atoms: _108  and  _111
REMARK   50  A    between atoms: _111  and  _112
REMARK   51  A    between atoms: _114  and  _116
REMARK   52  A    between atoms: _116  and  _117
REMARK   53  A    between atoms: _116  and  _119
REMARK   54  A    between atoms: _119  and  _120
REMARK   55  A    between atoms: _125  and  _127
REMARK   56  A    between atoms: _127  and  _128
REMARK   57  A    between atoms: _127  and  _130
REMARK   58  A    between atoms: _130  and  _131
REMARK   59  A    between atoms: _136  and  _137
REMARK   60  A    between atoms: _139  and  _141
REMARK   61  A    between atoms: _141  and  _142
REMARK   62  A    between atoms: _141  and  _144
REMARK   63  A    between atoms: _148  and  _149
REMARK   64  A    between atoms: _154  and  _156
REMARK   65  A    between atoms: _156  and  _157
REMARK   66  A    between atoms: _156  and  _159
REMARK   67  A    between atoms: _159  and  _160
REMARK   68  A    between atoms: _165  and  _166
REMARK   69  A    between atoms: _168  and  _170
REMARK   70  A    between atoms: _170  and  _171
REMARK   71  A    between atoms: _170  and  _173
REMARK   72  A    between atoms: _173  and  _174
REMARK   73  A    between atoms: _177  and  _179
REMARK   74  A    between atoms: _179  and  _180
REMARK   75  A    between atoms: _179  and  _182
REMARK   76  A    between atoms: _182  and  _183
REMARK   77  A    between atoms: _183  and  _184
REMARK   78  A    between atoms: _189  and  _191
REMARK   79  A    between atoms: _191  and  _192
REMARK   80  A    between atoms: _194  and  _196
REMARK   81  A    between atoms: _196  and  _197
REMARK   82  A    between atoms: _196  and  _199
REMARK   83  A    between atoms: _199  and  _200
REMARK   84  A    between atoms: _200  and  _201
REMARK   85  A    between atoms: _201  and  _202
REMARK   86  A    between atoms: _202  and  _203
REMARK   87  A    between atoms: _207  and  _209
REMARK   88  A    between atoms: _209  and  _210
REMARK   89  A    between atoms: _209  and  _212
REMARK   90  A    between atoms: _212  and  _213
REMARK   91  A    between atoms: _223  and  _225
REMARK   92  A    between atoms: _225  and  _226
REMARK   93  A    between atoms: _225  and  _228
REMARK   94  A    between atoms: _228  and  _229
REMARK   95  A    between atoms: _232  and  _234
REMARK   96  A    between atoms: _234  and  _235
REMARK   97  A    between atoms: _234  and  _237
REMARK   98  A    between atoms: _237  and  _238
REMARK   99  A    between atoms: _238  and  _239
REMARK  100  A    between atoms: _239  and  _240
REMARK  101  A    between atoms: _240  and  _241
REMARK  102  A    between atoms: _245  and  _247
REMARK  103  A    between atoms: _247  and  _248
REMARK  104  A    between atoms: _247  and  _250
REMARK  105  A    between atoms: _250  and  _251
REMARK  106  A    between atoms: _257  and  _259
REMARK  107  A    between atoms: _259  and  _260
REMARK  108  A    between atoms: _259  and  _262
REMARK  109  A    between atoms: _262  and  _263
REMARK  110  A    between atoms: _269  and  _271
REMARK  111  A    between atoms: _271  and  _272
REMARK  112  A    between atoms: _271  and  _274
REMARK  113  A    between atoms: _274  and  _275
REMARK  114  A    between atoms: _278  and  _280
REMARK  115  A    between atoms: _280  and  _281
REMARK  116  A    between atoms: _280  and  _283
REMARK  117  A    between atoms: _283  and  _284
REMARK  118  A    between atoms: _289  and  _291
REMARK  119  A    between atoms: _291  and  _292
REMARK  120  A    between atoms: _291  and  _294
REMARK  121  A    between atoms: _294  and  _295
REMARK  122  A    between atoms: _297  and  _299
REMARK  123  A    between atoms: _299  and  _300
REMARK  124  A    between atoms: _299  and  _302
REMARK  125  A    between atoms: _302  and  _303
REMARK  126  A    between atoms: _313  and  _315
REMARK  127  A    between atoms: _315  and  _316
REMARK  128  A    between atoms: _318  and  _320
REMARK  129  A    between atoms: _320  and  _321
REMARK  130  A    between atoms: _320  and  _323
REMARK  131  A    between atoms: _323  and  _324
REMARK  132  A    between atoms: _327  and  _329
REMARK  133  A    between atoms: _329  and  _330
REMARK  134  A    between atoms: _329  and  _332
REMARK  135  A    between atoms: _332  and  _333
REMARK  136  A    between atoms: _336  and  _338
REMARK  137  A    between atoms: _338  and  _339
REMARK  138  A    between atoms: _341  and  _343
REMARK  139  A    between atoms: _343  and  _344
REMARK  140  A    between atoms: _343  and  _346
REMARK  141  A    between atoms: _346  and  _347
REMARK  142  A    between atoms: _350  and  _352
REMARK  143  A    between atoms: _352  and  _353
REMARK  144  A    between atoms: _356  and  _358
REMARK  145  A    between atoms: _358  and  _359
REMARK  146  A    between atoms: _358  and  _361
REMARK  147  A    between atoms: _361  and  _362
REMARK  148  A    between atoms: _367  and  _368
REMARK  149  A    between atoms: _370  and  _372
REMARK  150  A    between atoms: _372  and  _373
REMARK  151  A    between atoms: _372  and  _375
REMARK  152  A    between atoms: _375  and  _376
REMARK  153  A    between atoms: _376  and  _377
REMARK  154  A    between atoms: _380  and  _382
REMARK  155  A    between atoms: _382  and  _383
REMARK  156  A    between atoms: _382  and  _385
REMARK  157  A    between atoms: _385  and  _386
REMARK  158  A    between atoms: _389  and  _391
REMARK  159  A    between atoms: _391  and  _392
REMARK  160  A    between atoms: _395  and  _397
REMARK  161  A    between atoms: _397  and  _398
REMARK  162  A    between atoms: _397  and  _400
REMARK  163  A    between atoms: _400  and  _401
REMARK  164  A    between atoms: _401  and  _402
REMARK  165  A    between atoms: _402  and  _403
REMARK  166  A    between atoms: _412  and  _414
REMARK  167  A    between atoms: _414  and  _415
REMARK  168  A    between atoms: _414  and  _417
REMARK  169  A    between atoms: _417  and  _418
REMARK  170  A    between atoms: _421  and  _423
REMARK  171  A    between atoms: _423  and  _424
REMARK  172  A    between atoms: _423  and  _426
REMARK  173  A    between atoms: _429  and  _431
REMARK  174  A    between atoms: _431  and  _432
REMARK  175  A    between atoms: _431  and  _434
REMARK  176  A    between atoms: _434  and  _435
REMARK  177  A    between atoms: _445  and  _447
REMARK  178  A    between atoms: _447  and  _448
REMARK  179  A    between atoms: _447  and  _450
REMARK  180  A    between atoms: _450  and  _451
REMARK  181  A    between atoms: _456  and  _457
REMARK  182  A    between atoms: _459  and  _461
REMARK  183  A    between atoms: _461  and  _462
REMARK  184  A    between atoms: _461  and  _464
REMARK  185  A    between atoms: _464  and  _465
REMARK  186  A    between atoms: _470  and  _471
REMARK  187  A    between atoms: _473  and  _475
REMARK  188  A    between atoms: _475  and  _476
REMARK  189  A    between atoms: _475  and  _478
REMARK  190  A    between atoms: _478  and  _479
REMARK  191  A    between atoms: _482  and  _484
REMARK  192  A    between atoms: _484  and  _485
REMARK  193  A    between atoms: _484  and  _487
REMARK  194  A    between atoms: _487  and  _488
REMARK  195  A    between atoms: _488  and  _489
REMARK  196  A    between atoms: _489  and  _490
REMARK  197  A    between atoms: _490  and  _491
REMARK  198  A    between atoms: _495  and  _497
REMARK  199  A    between atoms: _497  and  _498
REMARK  200  A    between atoms: _497  and  _500
REMARK  201  A    between atoms: _500  and  _501
REMARK  202  A    between atoms: _504  and  _506
REMARK  203  A    between atoms: _506  and  _507
REMARK  204  A    between atoms: _506  and  _509
REMARK  205  A    between atoms: _512  and  _514
REMARK  206  A    between atoms: _514  and  _515
REMARK  207  A    between atoms: _514  and  _517
REMARK  208  A    between atoms: _517  and  _518
REMARK  209  A    between atoms: _521  and  _523
REMARK  210  A    between atoms: _523  and  _524
REMARK  211  A    between atoms: _523  and  _526
REMARK  212  A    between atoms: _526  and  _527
REMARK  213  A    between atoms: _529  and  _531
REMARK  214  A    between atoms: _531  and  _532
REMARK  215  A    between atoms: _534  and  _536
REMARK  216  A    between atoms: _536  and  _537
REMARK  217  A    between atoms: _536  and  _539
REMARK  218  A    between atoms: _539  and  _540
REMARK  219  A    between atoms: _543  and  _545
REMARK  220  A    between atoms: _545  and  _546
REMARK  221  A    between atoms: _545  and  _548
REMARK  222  A    between atoms: _548  and  _549
REMARK  223  A    between atoms: _552  and  _554
REMARK  224  A    between atoms: _554  and  _555
REMARK  225  A    between atoms: _554  and  _557
REMARK  226  A    between atoms: _557  and  _558
REMARK  227  A    between atoms: _563  and  _565
REMARK  228  A    between atoms: _565  and  _566
REMARK  229  A    between atoms: _565  and  _568
REMARK  230  A    between atoms: _568  and  _569
REMARK  231  A    between atoms: _572  and  _574
REMARK  232  A    between atoms: _574  and  _575
REMARK  233  A    between atoms: _574  and  _577
REMARK  234  A    between atoms: _577  and  _578
REMARK  235  A    between atoms: _578  and  _579
REMARK  236  A    between atoms: _579  and  _580
REMARK  237  A    between atoms: _589  and  _591
REMARK  238  A    between atoms: _591  and  _592
REMARK  239  A    between atoms: _591  and  _594
REMARK  240  A    between atoms: _594  and  _595
REMARK  241  A    between atoms: _598  and  _600
REMARK  242  A    between atoms: _600  and  _601
REMARK  243  A    between atoms: _600  and  _603
REMARK  244  A    between atoms: _603  and  _604
REMARK  245  A    between atoms: _604  and  _605
REMARK  246  A    between atoms: _605  and  _606
REMARK  247  A    between atoms: _615  and  _617
REMARK  248  A    between atoms: _617  and  _618
REMARK  249  A    between atoms: _617  and  _620
REMARK  250  A    between atoms: _620  and  _621
REMARK  251  A    between atoms: _621  and  _622
REMARK  252  A    between atoms: _622  and  _623
REMARK  253  A    between atoms: _623  and  _624
REMARK  254  A    between atoms: _628  and  _630
REMARK  255  A    between atoms: _630  and  _631
REMARK  256  A    between atoms: _630  and  _633
REMARK  257  A    between atoms: _633  and  _634
REMARK  258  A    between atoms: _640  and  _642
REMARK  259  A    between atoms: _642  and  _643
REMARK  260  A    between atoms: _646  and  _648
REMARK  261  A    between atoms: _648  and  _649
REMARK  262  A    between atoms: _648  and  _651
REMARK  263  A    between atoms: _651  and  _652
REMARK  264  A    between atoms: _655  and  _657
REMARK  265  A    between atoms: _657  and  _658
REMARK  266  A    between atoms: _657  and  _660
REMARK  267  A    between atoms: _660  and  _661
REMARK  268  A    between atoms: _663  and  _665
REMARK  269  A    between atoms: _665  and  _666
REMARK  270  A    between atoms: _665  and  _668
REMARK  271  A    between atoms: _668  and  _669
REMARK  272  A    between atoms: _669  and  _670
REMARK  273  A    between atoms: _675  and  _677
REMARK  274  A    between atoms: _677  and  _678
REMARK  275  A    between atoms: _677  and  _680
REMARK  276  A    between atoms: _680  and  _681
REMARK  277  A    between atoms: _683  and  _685
REMARK  278  A    between atoms: _685  and  _686
REMARK  279  A    between atoms: _685  and  _688
REMARK  280  A    between atoms: _688  and  _689
REMARK  281  A    between atoms: _691  and  _693
REMARK  282  A    between atoms: _693  and  _694
REMARK  283  A    between atoms: _693  and  _696
REMARK  284  A    between atoms: _696  and  _697
REMARK  285  A    between atoms: _700  and  _702
REMARK  286  A    between atoms: _702  and  _703
REMARK  287  A    between atoms: _705  and  _707
REMARK  288  A    between atoms: _707  and  _708
REMARK  289  A    between atoms: _707  and  _710
REMARK  290  A    between atoms: _710  and  _711
REMARK  291  A    between atoms: _714  and  _716
REMARK  292  A    between atoms: _716  and  _717
REMARK  293  A    between atoms: _716  and  _719
REMARK  294  A    between atoms: _722  and  _724
REMARK  295  A    between atoms: _724  and  _725
REMARK  296  A    between atoms: _724  and  _727
REMARK  297  A    between atoms: _727  and  _728
REMARK  298  A    between atoms: _728  and  _729
REMARK  299  A    between atoms: _731  and  _733
REMARK  300  A    between atoms: _733  and  _734
REMARK  301  A    between atoms: _736  and  _738
REMARK  302  A    between atoms: _738  and  _739
REMARK  303  A    between atoms: _742  and  _744
REMARK  304  A    between atoms: _744  and  _745
REMARK  305  A    between atoms: _744  and  _747
REMARK  306  A    between atoms: _750  and  _752
REMARK  307  A    between atoms: _752  and  _753
REMARK  308  A    between atoms: _752  and  _755
REMARK  309  A    between atoms: _755  and  _756
REMARK  310  A    between atoms: _756  and  _757
REMARK                            x       y       z     vdW  Elec       q    Type
REMARK                         _______ _______ _______ _____ _____    ______ ____
ROOT
ATOM      1  C   ILE A   2      -9.339  13.800  42.964  0.00  0.00    +0.241 C 
ATOM      2  N   ALA A   3     -10.598  14.116  43.160  0.00  0.00    -0.297 N 
ATOM      3  H   ALA A   3     -11.302  13.362  43.291  0.00  0.00    +0.150 HD
ATOM      4  O   ILE A   2      -8.493  14.630  42.620  0.00  0.00    -0.273 OA
ENDROOT
BRANCH   2   5
ATOM      5  CA  ALA A   3     -11.026  15.520  43.197  0.00  0.00    +0.149 C 
ATOM      6  CB  ALA A   3     -12.521  15.592  43.224  0.00  0.00    +0.031 C 
BRANCH   5   7
ATOM      7  C   ALA A   3     -10.450  16.232  44.436  0.00  0.00    +0.241 C 
ATOM      8  O   ALA A   3     -10.339  15.629  45.524  0.00  0.00    -0.273 OA
ATOM      9  N   ARG A   4     -10.112  17.515  44.225  0.00  0.00    -0.298 N 
ATOM     10  H   ARG A   4     -10.092  17.855  43.242  0.00  0.00    +0.150 HD
BRANCH   9  11
ATOM     11  CA  ARG A   4      -9.770  18.467  45.283  0.00  0.00    +0.137 C 
BRANCH  11  12
ATOM     12  C   ARG A   4     -10.974  19.398  45.552  0.00  0.00    +0.227 C 
ATOM     13  O   ARG A   4     -11.698  19.830  44.616  0.00  0.00    -0.286 OA
ENDBRANCH  11  12
BRANCH  11  14
ATOM     14  CB  ARG A   4      -8.523  19.300  44.954  0.00  0.00    +0.031 C 
BRANCH  14  15
ATOM     15  CG  ARG A   4      -7.275  18.533  44.508  0.00  0.00    +0.045 C 
BRANCH  15  16
ATOM     16  CD  ARG A   4      -6.768  17.615  45.578  0.00  0.00    +0.174 C 
BRANCH  16  17
ATOM     17  NE  ARG A   4      -5.511  16.893  45.340  0.00  0.00    -0.265 N 
ATOM     18  CZ  ARG A   4      -4.292  17.251  45.779  0.00  0.00    +0.342 C 
ATOM     19  NH2 ARG A   4      -4.065  18.415  46.408  0.00  0.00    -0.292 N 
ATOM     20 HH21 ARG A   4      -3.106  18.653  46.732  0.00  0.00    +0.255 HD
ATOM     21 HH22 ARG A   4      -4.848  19.079  46.572  0.00  0.00    +0.255 HD
ATOM     22  NH1 ARG A   4      -3.257  16.441  45.546  0.00  0.00    -0.292 N 
ATOM     23 HH11 ARG A   4      -2.307  16.702  45.879  0.00  0.00    +0.255 HD
ATOM     24 HH12 ARG A   4      -3.401  15.548  45.032  0.00  0.00    +0.255 HD
ATOM     25  HE  ARG A   4      -5.570  16.020  44.777  0.00  0.00    +0.259 HD
ENDBRANCH  16  17
ENDBRANCH  15  16
ENDBRANCH  14  15
ENDBRANCH  11  14
ENDBRANCH   9  11
ENDBRANCH   5   7
ENDBRANCH   2   5
BRANCH   1  26
ATOM     26  CA  ILE A   2      -8.971  12.326  43.185  0.00  0.00    +0.148 C 
BRANCH  26  29
ATOM     27  C   GLU A   1     -10.388  10.866  44.487  0.00  0.00    +0.238 C 
ATOM     28  O   GLU A   1      -9.691  11.051  45.489  0.00  0.00    -0.274 OA
ATOM     29  N   ILE A   2     -10.126  11.473  43.313  0.00  0.00    -0.297 N 
ATOM     30  H   ILE A   2     -10.757  11.326  42.499  0.00  0.00    +0.150 HD
BRANCH  27  31
ATOM     31  CA  GLU A   1     -11.610   9.962  44.595  0.00  0.00    +0.145 C 
BRANCH  31  32
ATOM     32  N   GLU A   1     -12.710  10.306  43.683  0.00  0.00    -0.238 NA
ATOM     33  H   GLU A   1     -13.096   9.584  43.042  0.00  0.00    +0.142 HD
ENDBRANCH  31  32
BRANCH  31  34
ATOM     34  CB  GLU A   1     -11.251   8.483  44.474  0.00  0.00    +0.038 C 
BRANCH  34  35
ATOM     35  CG  GLU A   1     -10.530   7.885  45.633  0.00  0.00    +0.116 C 
BRANCH  35  36
ATOM     36  CD  GLU A   1      -9.982   6.467  45.315  0.00  0.00    +0.365 C 
ATOM     37  OE2 GLU A   1      -8.732   6.298  45.411  0.00  0.00    -0.246 OA
ATOM     38  OE1 GLU A   1     -10.787   5.526  44.986  0.00  0.00    -0.246 OA
ENDBRANCH  35  36
ENDBRANCH  34  35
ENDBRANCH  31  34
ENDBRANCH  27  31
ENDBRANCH  26  29
BRANCH  26  39
ATOM     39  CB  ILE A   2      -7.932  11.832  42.105  0.00  0.00    +0.027 C 
ATOM     40  CG2 ILE A   2      -7.264  10.528  42.586  0.00  0.00    +0.002 C 
BRANCH  39  41
ATOM     41  CG1 ILE A   2      -8.590  11.714  40.714  0.00  0.00    +0.002 C 
ATOM     42  CD1 ILE A   2      -7.637  11.461  39.542  0.00  0.00    +0.000 C 
ENDBRANCH  39  41
ENDBRANCH  26  39
ENDBRANCH   1  26
TORSDOF 17
REMARK  Name = ../refined-set-2016/3i25/3i25_pocket.pdb
REMARK  310 active torsions:
REMARK  status: ('A' for Active; 'I' for Inactive)
REMARK    1  A    between atoms: _1  and  _3
REMARK    2  A    between atoms: _3  and  _4
REMARK    3  A    between atoms: _3  and  _6
REMARK    4  A    between atoms: _6  and  _7
REMARK    5  A    between atoms: _7  and  _8
REMARK    6  A    between atoms: _8  and  _9
REMARK    7  A    between atoms: _9  and  _10
REMARK    8  A    between atoms: _14  and  _16
REMARK    9  A    between atoms: _16  and  _17
REMARK   10  A    between atoms: _16  and  _19
REMARK   11  A    between atoms: _19  and  _20
REMARK   12  A    between atoms: _22  and  _24
REMARK   13  A    between atoms: _24  and  _25
REMARK   14  A    between atoms: _27  and  _29
REMARK   15  A    between atoms: _29  and  _30
REMARK   16  A    between atoms: _29  and  _32
REMARK   17  A    between atoms: _32  and  _33
REMARK   18  A    between atoms: _33  and  _34
REMARK   19  A    between atoms: _39  and  _41
REMARK   20  A    between atoms: _41  and  _42
REMARK   21  A    between atoms: _44  and  _46
REMARK   22  A    between atoms: _46  and  _47
REMARK   23  A    between atoms: _46  and  _49
REMARK   24  A    between atoms: _49  and  _50
REMARK   25  A    between atoms: _55  and  _56
REMARK   26  A    between atoms: _58  and  _60
REMARK   27  A    between atoms: _60  and  _61
REMARK   28  A    between atoms: _60  and  _63
REMARK   29  A    between atoms: _63  and  _64
REMARK   30  A    between atoms: _67  and  _69
REMARK   31  A    between atoms: _69  and  _70
REMARK   32  A    between atoms: _69  and  _72
REMARK   33  A    between atoms: _75  and  _77
REMARK   34  A    between atoms: _77  and  _78
REMARK   35  A    between atoms: _77  and  _80
REMARK   36  A    between atoms: _80  and  _81
REMARK   37  A    between atoms: _84  and  _86
REMARK   38  A    between atoms: _86  and  _87
REMARK   39  A    between atoms: _86  and  _89
REMARK   40  A    between atoms: _89  and  _90
REMARK   41  A    between atoms: _93  and  _95
REMARK   42  A    between atoms: _95  and  _96
REMARK   43  A    between atoms: _98  and  _100
REMARK   44  A    between atoms: _100  and  _101
REMARK   45  A    between atoms: _100  and  _103
REMARK   46  A    between atoms: _103  and  _104
REMARK   47  A    between atoms: _106  and  _108
REMARK   48  A    between atoms: _108  and  _109
REMARK   49  A    between atoms: _108  and  _111
REMARK   50  A    between atoms: _111  and  _112
REMARK   51  A    between atoms: _114  and  _116
REMARK   52  A    between atoms: _116  and  _117
REMARK   53  A    between atoms: _116  and  _119
REMARK   54  A    between atoms: _119  and  _120
REMARK   55  A    between atoms: _125  and  _127
REMARK   56  A    between atoms: _127  and  _128
REMARK   57  A    between atoms: _127  and  _130
REMARK   58  A    between atoms: _130  and  _131
REMARK   59  A    between atoms: _136  and  _137
REMARK   60  A    between atoms: _139  and  _141
REMARK   61  A    between atoms: _141  and  _142
REMARK   62  A    between atoms: _141  and  _144
REMARK   63  A    between atoms: _148  and  _149
REMARK   64  A    between atoms: _154  and  _156
REMARK   65  A    between atoms: _156  and  _157
REMARK   66  A    between atoms: _156  and  _159
REMARK   67  A    between atoms: _159  and  _160
REMARK   68  A    between atoms: _165  and  _166
REMARK   69  A    between atoms: _168  and  _170
REMARK   70  A    between atoms: _170  and  _171
REMARK   71  A    between atoms: _170  and  _173
REMARK   72  A    between atoms: _173  and  _174
REMARK   73  A    between atoms: _177  and  _179
REMARK   74  A    between atoms: _179  and  _180
REMARK   75  A    between atoms: _179  and  _182
REMARK   76  A    between atoms: _182  and  _183
REMARK   77  A    between atoms: _183  and  _184
REMARK   78  A    between atoms: _189  and  _191
REMARK   79  A    between atoms: _191  and  _192
REMARK   80  A    between atoms: _194  and  _196
REMARK   81  A    between atoms: _196  and  _197
REMARK   82  A    between atoms: _196  and  _199
REMARK   83  A    between atoms: _199  and  _200
REMARK   84  A    between atoms: _200  and  _201
REMARK   85  A    between atoms: _201  and  _202
REMARK   86  A    between atoms: _202  and  _203
REMARK   87  A    between atoms: _207  and  _209
REMARK   88  A    between atoms: _209  and  _210
REMARK   89  A    between atoms: _209  and  _212
REMARK   90  A    between atoms: _212  and  _213
REMARK   91  A    between atoms: _223  and  _225
REMARK   92  A    between atoms: _225  and  _226
REMARK   93  A    between atoms: _225  and  _228
REMARK   94  A    between atoms: _228  and  _229
REMARK   95  A    between atoms: _232  and  _234
REMARK   96  A    between atoms: _234  and  _235
REMARK   97  A    between atoms: _234  and  _237
REMARK   98  A    between atoms: _237  and  _238
REMARK   99  A    between atoms: _238  and  _239
REMARK  100  A    between atoms: _239  and  _240
REMARK  101  A    between atoms: _240  and  _241
REMARK  102  A    between atoms: _245  and  _247
REMARK  103  A    between atoms: _247  and  _248
REMARK  104  A    between atoms: _247  and  _250
REMARK  105  A    between atoms: _250  and  _251
REMARK  106  A    between atoms: _257  and  _259
REMARK  107  A    between atoms: _259  and  _260
REMARK  108  A    between atoms: _259  and  _262
REMARK  109  A    between atoms: _262  and  _263
REMARK  110  A    between atoms: _269  and  _271
REMARK  111  A    between atoms: _271  and  _272
REMARK  112  A    between atoms: _271  and  _274
REMARK  113  A    between atoms: _274  and  _275
REMARK  114  A    between atoms: _278  and  _280
REMARK  115  A    between atoms: _280  and  _281
REMARK  116  A    between atoms: _280  and  _283
REMARK  117  A    between atoms: _283  and  _284
REMARK  118  A    between atoms: _289  and  _291
REMARK  119  A    between atoms: _291  and  _292
REMARK  120  A    between atoms: _291  and  _294
REMARK  121  A    between atoms: _294  and  _295
REMARK  122  A    between atoms: _297  and  _299
REMARK  123  A    between atoms: _299  and  _300
REMARK  124  A    between atoms: _299  and  _302
REMARK  125  A    between atoms: _302  and  _303
REMARK  126  A    between atoms: _313  and  _315
REMARK  127  A    between atoms: _315  and  _316
REMARK  128  A    between atoms: _318  and  _320
REMARK  129  A    between atoms: _320  and  _321
REMARK  130  A    between atoms: _320  and  _323
REMARK  131  A    between atoms: _323  and  _324
REMARK  132  A    between atoms: _327  and  _329
REMARK  133  A    between atoms: _329  and  _330
REMARK  134  A    between atoms: _329  and  _332
REMARK  135  A    between atoms: _332  and  _333
REMARK  136  A    between atoms: _336  and  _338
REMARK  137  A    between atoms: _338  and  _339
REMARK  138  A    between atoms: _341  and  _343
REMARK  139  A    between atoms: _343  and  _344
REMARK  140  A    between atoms: _343  and  _346
REMARK  141  A    between atoms: _346  and  _347
REMARK  142  A    between atoms: _350  and  _352
REMARK  143  A    between atoms: _352  and  _353
REMARK  144  A    between atoms: _356  and  _358
REMARK  145  A    between atoms: _358  and  _359
REMARK  146  A    between atoms: _358  and  _361
REMARK  147  A    between atoms: _361  and  _362
REMARK  148  A    between atoms: _367  and  _368
REMARK  149  A    between atoms: _370  and  _372
REMARK  150  A    between atoms: _372  and  _373
REMARK  151  A    between atoms: _372  and  _375
REMARK  152  A    between atoms: _375  and  _376
REMARK  153  A    between atoms: _376  and  _377
REMARK  154  A    between atoms: _380  and  _382
REMARK  155  A    between atoms: _382  and  _383
REMARK  156  A    between atoms: _382  and  _385
REMARK  157  A    between atoms: _385  and  _386
REMARK  158  A    between atoms: _389  and  _391
REMARK  159  A    between atoms: _391  and  _392
REMARK  160  A    between atoms: _395  and  _397
REMARK  161  A    between atoms: _397  and  _398
REMARK  162  A    between atoms: _397  and  _400
REMARK  163  A    between atoms: _400  and  _401
REMARK  164  A    between atoms: _401  and  _402
REMARK  165  A    between atoms: _402  and  _403
REMARK  166  A    between atoms: _412  and  _414
REMARK  167  A    between atoms: _414  and  _415
REMARK  168  A    between atoms: _414  and  _417
REMARK  169  A    between atoms: _417  and  _418
REMARK  170  A    between atoms: _421  and  _423
REMARK  171  A    between atoms: _423  and  _424
REMARK  172  A    between atoms: _423  and  _426
REMARK  173  A    between atoms: _429  and  _431
REMARK  174  A    between atoms: _431  and  _432
REMARK  175  A    between atoms: _431  and  _434
REMARK  176  A    between atoms: _434  and  _435
REMARK  177  A    between atoms: _445  and  _447
REMARK  178  A    between atoms: _447  and  _448
REMARK  179  A    between atoms: _447  and  _450
REMARK  180  A    between atoms: _450  and  _451
REMARK  181  A    between atoms: _456  and  _457
REMARK  182  A    between atoms: _459  and  _461
REMARK  183  A    between atoms: _461  and  _462
REMARK  184  A    between atoms: _461  and  _464
REMARK  185  A    between atoms: _464  and  _465
REMARK  186  A    between atoms: _470  and  _471
REMARK  187  A    between atoms: _473  and  _475
REMARK  188  A    between atoms: _475  and  _476
REMARK  189  A    between atoms: _475  and  _478
REMARK  190  A    between atoms: _478  and  _479
REMARK  191  A    between atoms: _482  and  _484
REMARK  192  A    between atoms: _484  and  _485
REMARK  193  A    between atoms: _484  and  _487
REMARK  194  A    between atoms: _487  and  _488
REMARK  195  A    between atoms: _488  and  _489
REMARK  196  A    between atoms: _489  and  _490
REMARK  197  A    between atoms: _490  and  _491
REMARK  198  A    between atoms: _495  and  _497
REMARK  199  A    between atoms: _497  and  _498
REMARK  200  A    between atoms: _497  and  _500
REMARK  201  A    between atoms: _500  and  _501
REMARK  202  A    between atoms: _504  and  _506
REMARK  203  A    between atoms: _506  and  _507
REMARK  204  A    between atoms: _506  and  _509
REMARK  205  A    between atoms: _512  and  _514
REMARK  206  A    between atoms: _514  and  _515
REMARK  207  A    between atoms: _514  and  _517
REMARK  208  A    between atoms: _517  and  _518
REMARK  209  A    between atoms: _521  and  _523
REMARK  210  A    between atoms: _523  and  _524
REMARK  211  A    between atoms: _523  and  _526
REMARK  212  A    between atoms: _526  and  _527
REMARK  213  A    between atoms: _529  and  _531
REMARK  214  A    between atoms: _531  and  _532
REMARK  215  A    between atoms: _534  and  _536
REMARK  216  A    between atoms: _536  and  _537
REMARK  217  A    between atoms: _536  and  _539
REMARK  218  A    between atoms: _539  and  _540
REMARK  219  A    between atoms: _543  and  _545
REMARK  220  A    between atoms: _545  and  _546
REMARK  221  A    between atoms: _545  and  _548
REMARK  222  A    between atoms: _548  and  _549
REMARK  223  A    between atoms: _552  and  _554
REMARK  224  A    between atoms: _554  and  _555
REMARK  225  A    between atoms: _554  and  _557
REMARK  226  A    between atoms: _557  and  _558
REMARK  227  A    between atoms: _563  and  _565
REMARK  228  A    between atoms: _565  and  _566
REMARK  229  A    between atoms: _565  and  _568
REMARK  230  A    between atoms: _568  and  _569
REMARK  231  A    between atoms: _572  and  _574
REMARK  232  A    between atoms: _574  and  _575
REMARK  233  A    between atoms: _574  and  _577
REMARK  234  A    between atoms: _577  and  _578
REMARK  235  A    between atoms: _578  and  _579
REMARK  236  A    between atoms: _579  and  _580
REMARK  237  A    between atoms: _589  and  _591
REMARK  238  A    between atoms: _591  and  _592
REMARK  239  A    between atoms: _591  and  _594
REMARK  240  A    between atoms: _594  and  _595
REMARK  241  A    between atoms: _598  and  _600
REMARK  242  A    between atoms: _600  and  _601
REMARK  243  A    between atoms: _600  and  _603
REMARK  244  A    between atoms: _603  and  _604
REMARK  245  A    between atoms: _604  and  _605
REMARK  246  A    between atoms: _605  and  _606
REMARK  247  A    between atoms: _615  and  _617
REMARK  248  A    between atoms: _617  and  _618
REMARK  249  A    between atoms: _617  and  _620
REMARK  250  A    between atoms: _620  and  _621
REMARK  251  A    between atoms: _621  and  _622
REMARK  252  A    between atoms: _622  and  _623
REMARK  253  A    between atoms: _623  and  _624
REMARK  254  A    between atoms: _628  and  _630
REMARK  255  A    between atoms: _630  and  _631
REMARK  256  A    between atoms: _630  and  _633
REMARK  257  A    between atoms: _633  and  _634
REMARK  258  A    between atoms: _640  and  _642
REMARK  259  A    between atoms: _642  and  _643
REMARK  260  A    between atoms: _646  and  _648
REMARK  261  A    between atoms: _648  and  _649
REMARK  262  A    between atoms: _648  and  _651
REMARK  263  A    between atoms: _651  and  _652
REMARK  264  A    between atoms: _655  and  _657
REMARK  265  A    between atoms: _657  and  _658
REMARK  266  A    between atoms: _657  and  _660
REMARK  267  A    between atoms: _660  and  _661
REMARK  268  A    between atoms: _663  and  _665
REMARK  269  A    between atoms: _665  and  _666
REMARK  270  A    between atoms: _665  and  _668
REMARK  271  A    between atoms: _668  and  _669
REMARK  272  A    between atoms: _669  and  _670
REMARK  273  A    between atoms: _675  and  _677
REMARK  274  A    between atoms: _677  and  _678
REMARK  275  A    between atoms: _677  and  _680
REMARK  276  A    between atoms: _680  and  _681
REMARK  277  A    between atoms: _683  and  _685
REMARK  278  A    between atoms: _685  and  _686
REMARK  279  A    between atoms: _685  and  _688
REMARK  280  A    between atoms: _688  and  _689
REMARK  281  A    between atoms: _691  and  _693
REMARK  282  A    between atoms: _693  and  _694
REMARK  283  A    between atoms: _693  and  _696
REMARK  284  A    between atoms: _696  and  _697
REMARK  285  A    between atoms: _700  and  _702
REMARK  286  A    between atoms: _702  and  _703
REMARK  287  A    between atoms: _705  and  _707
REMARK  288  A    between atoms: _707  and  _708
REMARK  289  A    between atoms: _707  and  _710
REMARK  290  A    between atoms: _710  and  _711
REMARK  291  A    between atoms: _714  and  _716
REMARK  292  A    between atoms: _716  and  _717
REMARK  293  A    between atoms: _716  and  _719
REMARK  294  A    between atoms: _722  and  _724
REMARK  295  A    between atoms: _724  and  _725
REMARK  296  A    between atoms: _724  and  _727
REMARK  297  A    between atoms: _727  and  _728
REMARK  298  A    between atoms: _728  and  _729
REMARK  299  A    between atoms: _731  and  _733
REMARK  300  A    between atoms: _733  and  _734
REMARK  301  A    between atoms: _736  and  _738
REMARK  302  A    between atoms: _738  and  _739
REMARK  303  A    between atoms: _742  and  _744
REMARK  304  A    between atoms: _744  and  _745
REMARK  305  A    between atoms: _744  and  _747
REMARK  306  A    between atoms: _750  and  _752
REMARK  307  A    between atoms: _752  and  _753
REMARK  308  A    between atoms: _752  and  _755
REMARK  309  A    between atoms: _755  and  _756
REMARK  310  A    between atoms: _756  and  _757
REMARK                            x       y       z     vdW  Elec       q    Type
REMARK                         _______ _______ _______ _____ _____    ______ ____
ROOT
ATOM      1  CA  LEU A   1      -7.254  12.388  19.600  0.00  0.00    +0.133 C 
ENDROOT
BRANCH   1   2
ATOM      2  N   LEU A   1      -8.155  11.262  19.709  0.00  0.00    -0.239 NA
ATOM      3  H   LEU A   1      -7.789  10.351  20.051  0.00  0.00    +0.142 HD
ENDBRANCH   1   2
BRANCH   1   4
ATOM      4  C   LEU A   1      -6.478  12.301  18.273  0.00  0.00    +0.224 C 
ATOM      5  O   LEU A   1      -5.795  11.319  18.030  0.00  0.00    -0.287 OA
ENDBRANCH   1   4
BRANCH   1   6
ATOM      6  CB  LEU A   1      -6.271  12.410  20.773  0.00  0.00    +0.025 C 
BRANCH   6   7
ATOM      7  CG  LEU A   1      -6.900  12.373  22.176  0.00  0.00    +0.002 C 
ATOM      8  CD2 LEU A   1      -5.799  12.624  23.235  0.00  0.00    +0.000 C 
ATOM      9  CD1 LEU A   1      -8.113  13.292  22.359  0.00  0.00    +0.000 C 
ENDBRANCH   6   7
ENDBRANCH   1   6
TORSDOF 4
REMARK  Name = ../refined-set-2016/3i25/3i25_pocket.pdb
REMARK  310 active torsions:
REMARK  status: ('A' for Active; 'I' for Inactive)
REMARK    1  A    between atoms: _1  and  _3
REMARK    2  A    between atoms: _3  and  _4
REMARK    3  A    between atoms: _3  and  _6
REMARK    4  A    between atoms: _6  and  _7
REMARK    5  A    between atoms: _7  and  _8
REMARK    6  A    between atoms: _8  and  _9
REMARK    7  A    between atoms: _9  and  _10
REMARK    8  A    between atoms: _14  and  _16
REMARK    9  A    between atoms: _16  and  _17
REMARK   10  A    between atoms: _16  and  _19
REMARK   11  A    between atoms: _19  and  _20
REMARK   12  A    between atoms: _22  and  _24
REMARK   13  A    between atoms: _24  and  _25
REMARK   14  A    between atoms: _27  and  _29
REMARK   15  A    between atoms: _29  and  _30
REMARK   16  A    between atoms: _29  and  _32
REMARK   17  A    between atoms: _32  and  _33
REMARK   18  A    between atoms: _33  and  _34
REMARK   19  A    between atoms: _39  and  _41
REMARK   20  A    between atoms: _41  and  _42
REMARK   21  A    between atoms: _44  and  _46
REMARK   22  A    between atoms: _46  and  _47
REMARK   23  A    between atoms: _46  and  _49
REMARK   24  A    between atoms: _49  and  _50
REMARK   25  A    between atoms: _55  and  _56
REMARK   26  A    between atoms: _58  and  _60
REMARK   27  A    between atoms: _60  and  _61
REMARK   28  A    between atoms: _60  and  _63
REMARK   29  A    between atoms: _63  and  _64
REMARK   30  A    between atoms: _67  and  _69
REMARK   31  A    between atoms: _69  and  _70
REMARK   32  A    between atoms: _69  and  _72
REMARK   33  A    between atoms: _75  and  _77
REMARK   34  A    between atoms: _77  and  _78
REMARK   35  A    between atoms: _77  and  _80
REMARK   36  A    between atoms: _80  and  _81
REMARK   37  A    between atoms: _84  and  _86
REMARK   38  A    between atoms: _86  and  _87
REMARK   39  A    between atoms: _86  and  _89
REMARK   40  A    between atoms: _89  and  _90
REMARK   41  A    between atoms: _93  and  _95
REMARK   42  A    between atoms: _95  and  _96
REMARK   43  A    between atoms: _98  and  _100
REMARK   44  A    between atoms: _100  and  _101
REMARK   45  A    between atoms: _100  and  _103
REMARK   46  A    between atoms: _103  and  _104
REMARK   47  A    between atoms: _106  and  _108
REMARK   48  A    between atoms: _108  and  _109
REMARK   49  A    between atoms: _108  and  _111
REMARK   50  A    between atoms: _111  and  _112
REMARK   51  A    between atoms: _114  and  _116
REMARK   52  A    between atoms: _116  and  _117
REMARK   53  A    between atoms: _116  and  _119
REMARK   54  A    between atoms: _119  and  _120
REMARK   55  A    between atoms: _125  and  _127
REMARK   56  A    between atoms: _127  and  _128
REMARK   57  A    between atoms: _127  and  _130
REMARK   58  A    between atoms: _130  and  _131
REMARK   59  A    between atoms: _136  and  _137
REMARK   60  A    between atoms: _139  and  _141
REMARK   61  A    between atoms: _141  and  _142
REMARK   62  A    between atoms: _141  and  _144
REMARK   63  A    between atoms: _148  and  _149
REMARK   64  A    between atoms: _154  and  _156
REMARK   65  A    between atoms: _156  and  _157
REMARK   66  A    between atoms: _156  and  _159
REMARK   67  A    between atoms: _159  and  _160
REMARK   68  A    between atoms: _165  and  _166
REMARK   69  A    between atoms: _168  and  _170
REMARK   70  A    between atoms: _170  and  _171
REMARK   71  A    between atoms: _170  and  _173
REMARK   72  A    between atoms: _173  and  _174
REMARK   73  A    between atoms: _177  and  _179
REMARK   74  A    between atoms: _179  and  _180
REMARK   75  A    between atoms: _179  and  _182
REMARK   76  A    between atoms: _182  and  _183
REMARK   77  A    between atoms: _183  and  _184
REMARK   78  A    between atoms: _189  and  _191
REMARK   79  A    between atoms: _191  and  _192
REMARK   80  A    between atoms: _194  and  _196
REMARK   81  A    between atoms: _196  and  _197
REMARK   82  A    between atoms: _196  and  _199
REMARK   83  A    between atoms: _199  and  _200
REMARK   84  A    between atoms: _200  and  _201
REMARK   85  A    between atoms: _201  and  _202
REMARK   86  A    between atoms: _202  and  _203
REMARK   87  A    between atoms: _207  and  _209
REMARK   88  A    between atoms: _209  and  _210
REMARK   89  A    between atoms: _209  and  _212
REMARK   90  A    between atoms: _212  and  _213
REMARK   91  A    between atoms: _223  and  _225
REMARK   92  A    between atoms: _225  and  _226
REMARK   93  A    between atoms: _225  and  _228
REMARK   94  A    between atoms: _228  and  _229
REMARK   95  A    between atoms: _232  and  _234
REMARK   96  A    between atoms: _234  and  _235
REMARK   97  A    between atoms: _234  and  _237
REMARK   98  A    between atoms: _237  and  _238
REMARK   99  A    between atoms: _238  and  _239
REMARK  100  A    between atoms: _239  and  _240
REMARK  101  A    between atoms: _240  and  _241
REMARK  102  A    between atoms: _245  and  _247
REMARK  103  A    between atoms: _247  and  _248
REMARK  104  A    between atoms: _247  and  _250
REMARK  105  A    between atoms: _250  and  _251
REMARK  106  A    between atoms: _257  and  _259
REMARK  107  A    between atoms: _259  and  _260
REMARK  108  A    between atoms: _259  and  _262
REMARK  109  A    between atoms: _262  and  _263
REMARK  110  A    between atoms: _269  and  _271
REMARK  111  A    between atoms: _271  and  _272
REMARK  112  A    between atoms: _271  and  _274
REMARK  113  A    between atoms: _274  and  _275
REMARK  114  A    between atoms: _278  and  _280
REMARK  115  A    between atoms: _280  and  _281
REMARK  116  A    between atoms: _280  and  _283
REMARK  117  A    between atoms: _283  and  _284
REMARK  118  A    between atoms: _289  and  _291
REMARK  119  A    between atoms: _291  and  _292
REMARK  120  A    between atoms: _291  and  _294
REMARK  121  A    between atoms: _294  and  _295
REMARK  122  A    between atoms: _297  and  _299
REMARK  123  A    between atoms: _299  and  _300
REMARK  124  A    between atoms: _299  and  _302
REMARK  125  A    between atoms: _302  and  _303
REMARK  126  A    between atoms: _313  and  _315
REMARK  127  A    between atoms: _315  and  _316
REMARK  128  A    between atoms: _318  and  _320
REMARK  129  A    between atoms: _320  and  _321
REMARK  130  A    between atoms: _320  and  _323
REMARK  131  A    between atoms: _323  and  _324
REMARK  132  A    between atoms: _327  and  _329
REMARK  133  A    between atoms: _329  and  _330
REMARK  134  A    between atoms: _329  and  _332
REMARK  135  A    between atoms: _332  and  _333
REMARK  136  A    between atoms: _336  and  _338
REMARK  137  A    between atoms: _338  and  _339
REMARK  138  A    between atoms: _341  and  _343
REMARK  139  A    between atoms: _343  and  _344
REMARK  140  A    between atoms: _343  and  _346
REMARK  141  A    between atoms: _346  and  _347
REMARK  142  A    between atoms: _350  and  _352
REMARK  143  A    between atoms: _352  and  _353
REMARK  144  A    between atoms: _356  and  _358
REMARK  145  A    between atoms: _358  and  _359
REMARK  146  A    between atoms: _358  and  _361
REMARK  147  A    between atoms: _361  and  _362
REMARK  148  A    between atoms: _367  and  _368
REMARK  149  A    between atoms: _370  and  _372
REMARK  150  A    between atoms: _372  and  _373
REMARK  151  A    between atoms: _372  and  _375
REMARK  152  A    between atoms: _375  and  _376
REMARK  153  A    between atoms: _376  and  _377
REMARK  154  A    between atoms: _380  and  _382
REMARK  155  A    between atoms: _382  and  _383
REMARK  156  A    between atoms: _382  and  _385
REMARK  157  A    between atoms: _385  and  _386
REMARK  158  A    between atoms: _389  and  _391
REMARK  159  A    between atoms: _391  and  _392
REMARK  160  A    between atoms: _395  and  _397
REMARK  161  A    between atoms: _397  and  _398
REMARK  162  A    between atoms: _397  and  _400
REMARK  163  A    between atoms: _400  and  _401
REMARK  164  A    between atoms: _401  and  _402
REMARK  165  A    between atoms: _402  and  _403
REMARK  166  A    between atoms: _412  and  _414
REMARK  167  A    between atoms: _414  and  _415
REMARK  168  A    between atoms: _414  and  _417
REMARK  169  A    between atoms: _417  and  _418
REMARK  170  A    between atoms: _421  and  _423
REMARK  171  A    between atoms: _423  and  _424
REMARK  172  A    between atoms: _423  and  _426
REMARK  173  A    between atoms: _429  and  _431
REMARK  174  A    between atoms: _431  and  _432
REMARK  175  A    between atoms: _431  and  _434
REMARK  176  A    between atoms: _434  and  _435
REMARK  177  A    between atoms: _445  and  _447
REMARK  178  A    between atoms: _447  and  _448
REMARK  179  A    between atoms: _447  and  _450
REMARK  180  A    between atoms: _450  and  _451
REMARK  181  A    between atoms: _456  and  _457
REMARK  182  A    between atoms: _459  and  _461
REMARK  183  A    between atoms: _461  and  _462
REMARK  184  A    between atoms: _461  and  _464
REMARK  185  A    between atoms: _464  and  _465
REMARK  186  A    between atoms: _470  and  _471
REMARK  187  A    between atoms: _473  and  _475
REMARK  188  A    between atoms: _475  and  _476
REMARK  189  A    between atoms: _475  and  _478
REMARK  190  A    between atoms: _478  and  _479
REMARK  191  A    between atoms: _482  and  _484
REMARK  192  A    between atoms: _484  and  _485
REMARK  193  A    between atoms: _484  and  _487
REMARK  194  A    between atoms: _487  and  _488
REMARK  195  A    between atoms: _488  and  _489
REMARK  196  A    between atoms: _489  and  _490
REMARK  197  A    between atoms: _490  and  _491
REMARK  198  A    between atoms: _495  and  _497
REMARK  199  A    between atoms: _497  and  _498
REMARK  200  A    between atoms: _497  and  _500
REMARK  201  A    between atoms: _500  and  _501
REMARK  202  A    between atoms: _504  and  _506
REMARK  203  A    between atoms: _506  and  _507
REMARK  204  A    between atoms: _506  and  _509
REMARK  205  A    between atoms: _512  and  _514
REMARK  206  A    between atoms: _514  and  _515
REMARK  207  A    between atoms: _514  and  _517
REMARK  208  A    between atoms: _517  and  _518
REMARK  209  A    between atoms: _521  and  _523
REMARK  210  A    between atoms: _523  and  _524
REMARK  211  A    between atoms: _523  and  _526
REMARK  212  A    between atoms: _526  and  _527
REMARK  213  A    between atoms: _529  and  _531
REMARK  214  A    between atoms: _531  and  _532
REMARK  215  A    between atoms: _534  and  _536
REMARK  216  A    between atoms: _536  and  _537
REMARK  217  A    between atoms: _536  and  _539
REMARK  218  A    between atoms: _539  and  _540
REMARK  219  A    between atoms: _543  and  _545
REMARK  220  A    between atoms: _545  and  _546
REMARK  221  A    between atoms: _545  and  _548
REMARK  222  A    between atoms: _548  and  _549
REMARK  223  A    between atoms: _552  and  _554
REMARK  224  A    between atoms: _554  and  _555
REMARK  225  A    between atoms: _554  and  _557
REMARK  226  A    between atoms: _557  and  _558
REMARK  227  A    between atoms: _563  and  _565
REMARK  228  A    between atoms: _565  and  _566
REMARK  229  A    between atoms: _565  and  _568
REMARK  230  A    between atoms: _568  and  _569
REMARK  231  A    between atoms: _572  and  _574
REMARK  232  A    between atoms: _574  and  _575
REMARK  233  A    between atoms: _574  and  _577
REMARK  234  A    between atoms: _577  and  _578
REMARK  235  A    between atoms: _578  and  _579
REMARK  236  A    between atoms: _579  and  _580
REMARK  237  A    between atoms: _589  and  _591
REMARK  238  A    between atoms: _591  and  _592
REMARK  239  A    between atoms: _591  and  _594
REMARK  240  A    between atoms: _594  and  _595
REMARK  241  A    between atoms: _598  and  _600
REMARK  242  A    between atoms: _600  and  _601
REMARK  243  A    between atoms: _600  and  _603
REMARK  244  A    between atoms: _603  and  _604
REMARK  245  A    between atoms: _604  and  _605
REMARK  246  A    between atoms: _605  and  _606
REMARK  247  A    between atoms: _615  and  _617
REMARK  248  A    between atoms: _617  and  _618
REMARK  249  A    between atoms: _617  and  _620
REMARK  250  A    between atoms: _620  and  _621
REMARK  251  A    between atoms: _621  and  _622
REMARK  252  A    between atoms: _622  and  _623
REMARK  253  A    between atoms: _623  and  _624
REMARK  254  A    between atoms: _628  and  _630
REMARK  255  A    between atoms: _630  and  _631
REMARK  256  A    between atoms: _630  and  _633
REMARK  257  A    between atoms: _633  and  _634
REMARK  258  A    between atoms: _640  and  _642
REMARK  259  A    between atoms: _642  and  _643
REMARK  260  A    between atoms: _646  and  _648
REMARK  261  A    between atoms: _648  and  _649
REMARK  262  A    between atoms: _648  and  _651
REMARK  263  A    between atoms: _651  and  _652
REMARK  264  A    between atoms: _655  and  _657
REMARK  265  A    between atoms: _657  and  _658
REMARK  266  A    between atoms: _657  and  _660
REMARK  267  A    between atoms: _660  and  _661
REMARK  268  A    between atoms: _663  and  _665
REMARK  269  A    between atoms: _665  and  _666
REMARK  270  A    between atoms: _665  and  _668
REMARK  271  A    between atoms: _668  and  _669
REMARK  272  A    between atoms: _669  and  _670
REMARK  273  A    between atoms: _675  and  _677
REMARK  274  A    between atoms: _677  and  _678
REMARK  275  A    between atoms: _677  and  _680
REMARK  276  A    between atoms: _680  and  _681
REMARK  277  A    between atoms: _683  and  _685
REMARK  278  A    between atoms: _685  and  _686
REMARK  279  A    between atoms: _685  and  _688
REMARK  280  A    between atoms: _688  and  _689
REMARK  281  A    between atoms: _691  and  _693
REMARK  282  A    between atoms: _693  and  _694
REMARK  283  A    between atoms: _693  and  _696
REMARK  284  A    between atoms: _696  and  _697
REMARK  285  A    between atoms: _700  and  _702
REMARK  286  A    between atoms: _702  and  _703
REMARK  287  A    between atoms: _705  and  _707
REMARK  288  A    between atoms: _707  and  _708
REMARK  289  A    between atoms: _707  and  _710
REMARK  290  A    between atoms: _710  and  _711
REMARK  291  A    between atoms: _714  and  _716
REMARK  292  A    between atoms: _716  and  _717
REMARK  293  A    between atoms: _716  and  _719
REMARK  294  A    between atoms: _722  and  _724
REMARK  295  A    between atoms: _724  and  _725
REMARK  296  A    between atoms: _724  and  _727
REMARK  297  A    between atoms: _727  and  _728
REMARK  298  A    between atoms: _728  and  _729
REMARK  299  A    between atoms: _731  and  _733
REMARK  300  A    between atoms: _733  and  _734
REMARK  301  A    between atoms: _736  and  _738
REMARK  302  A    between atoms: _738  and  _739
REMARK  303  A    between atoms: _742  and  _744
REMARK  304  A    between atoms: _744  and  _745
REMARK  305  A    between atoms: _744  and  _747
REMARK  306  A    between atoms: _750  and  _752
REMARK  307  A    between atoms: _752  and  _753
REMARK  308  A    between atoms: _752  and  _755
REMARK  309  A    between atoms: _755  and  _756
REMARK  310  A    between atoms: _756  and  _757
REMARK                            x       y       z     vdW  Elec       q    Type
REMARK                         _______ _______ _______ _____ _____    ______ ____
ROOT
ATOM      1  CA  VAL A   1      -4.861  19.073  16.014  0.00  0.00    +0.133 C 
ENDROOT
BRANCH   1   2
ATOM      2  CB  VAL A   1      -4.198  18.581  17.344  0.00  0.00    +0.023 C 
ATOM      3  CG2 VAL A   1      -4.565  19.464  18.550  0.00  0.00    +0.002 C 
ATOM      4  CG1 VAL A   1      -2.709  18.491  17.190  0.00  0.00    +0.002 C 
ENDBRANCH   1   2
BRANCH   1   5
ATOM      5  N   VAL A   1      -4.457  20.433  15.653  0.00  0.00    -0.239 NA
ATOM      6  H   VAL A   1      -4.785  21.221  16.246  0.00  0.00    +0.142 HD
ENDBRANCH   1   5
BRANCH   1   7
ATOM      7  C   VAL A   1      -6.386  19.076  16.089  0.00  0.00    +0.224 C 
ATOM      8  O   VAL A   1      -7.022  20.142  16.108  0.00  0.00    -0.287 OA
ENDBRANCH   1   7
TORSDOF 3
REMARK  Name = ../refined-set-2016/3i25/3i25_pocket.pdb
REMARK  310 active torsions:
REMARK  status: ('A' for Active; 'I' for Inactive)
REMARK    1  A    between atoms: _1  and  _3
REMARK    2  A    between atoms: _3  and  _4
REMARK    3  A    between atoms: _3  and  _6
REMARK    4  A    between atoms: _6  and  _7
REMARK    5  A    between atoms: _7  and  _8
REMARK    6  A    between atoms: _8  and  _9
REMARK    7  A    between atoms: _9  and  _10
REMARK    8  A    between atoms: _14  and  _16
REMARK    9  A    between atoms: _16  and  _17
REMARK   10  A    between atoms: _16  and  _19
REMARK   11  A    between atoms: _19  and  _20
REMARK   12  A    between atoms: _22  and  _24
REMARK   13  A    between atoms: _24  and  _25
REMARK   14  A    between atoms: _27  and  _29
REMARK   15  A    between atoms: _29  and  _30
REMARK   16  A    between atoms: _29  and  _32
REMARK   17  A    between atoms: _32  and  _33
REMARK   18  A    between atoms: _33  and  _34
REMARK   19  A    between atoms: _39  and  _41
REMARK   20  A    between atoms: _41  and  _42
REMARK   21  A    between atoms: _44  and  _46
REMARK   22  A    between atoms: _46  and  _47
REMARK   23  A    between atoms: _46  and  _49
REMARK   24  A    between atoms: _49  and  _50
REMARK   25  A    between atoms: _55  and  _56
REMARK   26  A    between atoms: _58  and  _60
REMARK   27  A    between atoms: _60  and  _61
REMARK   28  A    between atoms: _60  and  _63
REMARK   29  A    between atoms: _63  and  _64
REMARK   30  A    between atoms: _67  and  _69
REMARK   31  A    between atoms: _69  and  _70
REMARK   32  A    between atoms: _69  and  _72
REMARK   33  A    between atoms: _75  and  _77
REMARK   34  A    between atoms: _77  and  _78
REMARK   35  A    between atoms: _77  and  _80
REMARK   36  A    between atoms: _80  and  _81
REMARK   37  A    between atoms: _84  and  _86
REMARK   38  A    between atoms: _86  and  _87
REMARK   39  A    between atoms: _86  and  _89
REMARK   40  A    between atoms: _89  and  _90
REMARK   41  A    between atoms: _93  and  _95
REMARK   42  A    between atoms: _95  and  _96
REMARK   43  A    between atoms: _98  and  _100
REMARK   44  A    between atoms: _100  and  _101
REMARK   45  A    between atoms: _100  and  _103
REMARK   46  A    between atoms: _103  and  _104
REMARK   47  A    between atoms: _106  and  _108
REMARK   48  A    between atoms: _108  and  _109
REMARK   49  A    between atoms: _108  and  _111
REMARK   50  A    between atoms: _111  and  _112
REMARK   51  A    between atoms: _114  and  _116
REMARK   52  A    between atoms: _116  and  _117
REMARK   53  A    between atoms: _116  and  _119
REMARK   54  A    between atoms: _119  and  _120
REMARK   55  A    between atoms: _125  and  _127
REMARK   56  A    between atoms: _127  and  _128
REMARK   57  A    between atoms: _127  and  _130
REMARK   58  A    between atoms: _130  and  _131
REMARK   59  A    between atoms: _136  and  _137
REMARK   60  A    between atoms: _139  and  _141
REMARK   61  A    between atoms: _141  and  _142
REMARK   62  A    between atoms: _141  and  _144
REMARK   63  A    between atoms: _148  and  _149
REMARK   64  A    between atoms: _154  and  _156
REMARK   65  A    between atoms: _156  and  _157
REMARK   66  A    between atoms: _156  and  _159
REMARK   67  A    between atoms: _159  and  _160
REMARK   68  A    between atoms: _165  and  _166
REMARK   69  A    between atoms: _168  and  _170
REMARK   70  A    between atoms: _170  and  _171
REMARK   71  A    between atoms: _170  and  _173
REMARK   72  A    between atoms: _173  and  _174
REMARK   73  A    between atoms: _177  and  _179
REMARK   74  A    between atoms: _179  and  _180
REMARK   75  A    between atoms: _179  and  _182
REMARK   76  A    between atoms: _182  and  _183
REMARK   77  A    between atoms: _183  and  _184
REMARK   78  A    between atoms: _189  and  _191
REMARK   79  A    between atoms: _191  and  _192
REMARK   80  A    between atoms: _194  and  _196
REMARK   81  A    between atoms: _196  and  _197
REMARK   82  A    between atoms: _196  and  _199
REMARK   83  A    between atoms: _199  and  _200
REMARK   84  A    between atoms: _200  and  _201
REMARK   85  A    between atoms: _201  and  _202
REMARK   86  A    between atoms: _202  and  _203
REMARK   87  A    between atoms: _207  and  _209
REMARK   88  A    between atoms: _209  and  _210
REMARK   89  A    between atoms: _209  and  _212
REMARK   90  A    between atoms: _212  and  _213
REMARK   91  A    between atoms: _223  and  _225
REMARK   92  A    between atoms: _225  and  _226
REMARK   93  A    between atoms: _225  and  _228
REMARK   94  A    between atoms: _228  and  _229
REMARK   95  A    between atoms: _232  and  _234
REMARK   96  A    between atoms: _234  and  _235
REMARK   97  A    between atoms: _234  and  _237
REMARK   98  A    between atoms: _237  and  _238
REMARK   99  A    between atoms: _238  and  _239
REMARK  100  A    between atoms: _239  and  _240
REMARK  101  A    between atoms: _240  and  _241
REMARK  102  A    between atoms: _245  and  _247
REMARK  103  A    between atoms: _247  and  _248
REMARK  104  A    between atoms: _247  and  _250
REMARK  105  A    between atoms: _250  and  _251
REMARK  106  A    between atoms: _257  and  _259
REMARK  107  A    between atoms: _259  and  _260
REMARK  108  A    between atoms: _259  and  _262
REMARK  109  A    between atoms: _262  and  _263
REMARK  110  A    between atoms: _269  and  _271
REMARK  111  A    between atoms: _271  and  _272
REMARK  112  A    between atoms: _271  and  _274
REMARK  113  A    between atoms: _274  and  _275
REMARK  114  A    between atoms: _278  and  _280
REMARK  115  A    between atoms: _280  and  _281
REMARK  116  A    between atoms: _280  and  _283
REMARK  117  A    between atoms: _283  and  _284
REMARK  118  A    between atoms: _289  and  _291
REMARK  119  A    between atoms: _291  and  _292
REMARK  120  A    between atoms: _291  and  _294
REMARK  121  A    between atoms: _294  and  _295
REMARK  122  A    between atoms: _297  and  _299
REMARK  123  A    between atoms: _299  and  _300
REMARK  124  A    between atoms: _299  and  _302
REMARK  125  A    between atoms: _302  and  _303
REMARK  126  A    between atoms: _313  and  _315
REMARK  127  A    between atoms: _315  and  _316
REMARK  128  A    between atoms: _318  and  _320
REMARK  129  A    between atoms: _320  and  _321
REMARK  130  A    between atoms: _320  and  _323
REMARK  131  A    between atoms: _323  and  _324
REMARK  132  A    between atoms: _327  and  _329
REMARK  133  A    between atoms: _329  and  _330
REMARK  134  A    between atoms: _329  and  _332
REMARK  135  A    between atoms: _332  and  _333
REMARK  136  A    between atoms: _336  and  _338
REMARK  137  A    between atoms: _338  and  _339
REMARK  138  A    between atoms: _341  and  _343
REMARK  139  A    between atoms: _343  and  _344
REMARK  140  A    between atoms: _343  and  _346
REMARK  141  A    between atoms: _346  and  _347
REMARK  142  A    between atoms: _350  and  _352
REMARK  143  A    between atoms: _352  and  _353
REMARK  144  A    between atoms: _356  and  _358
REMARK  145  A    between atoms: _358  and  _359
REMARK  146  A    between atoms: _358  and  _361
REMARK  147  A    between atoms: _361  and  _362
REMARK  148  A    between atoms: _367  and  _368
REMARK  149  A    between atoms: _370  and  _372
REMARK  150  A    between atoms: _372  and  _373
REMARK  151  A    between atoms: _372  and  _375
REMARK  152  A    between atoms: _375  and  _376
REMARK  153  A    between atoms: _376  and  _377
REMARK  154  A    between atoms: _380  and  _382
REMARK  155  A    between atoms: _382  and  _383
REMARK  156  A    between atoms: _382  and  _385
REMARK  157  A    between atoms: _385  and  _386
REMARK  158  A    between atoms: _389  and  _391
REMARK  159  A    between atoms: _391  and  _392
REMARK  160  A    between atoms: _395  and  _397
REMARK  161  A    between atoms: _397  and  _398
REMARK  162  A    between atoms: _397  and  _400
REMARK  163  A    between atoms: _400  and  _401
REMARK  164  A    between atoms: _401  and  _402
REMARK  165  A    between atoms: _402  and  _403
REMARK  166  A    between atoms: _412  and  _414
REMARK  167  A    between atoms: _414  and  _415
REMARK  168  A    between atoms: _414  and  _417
REMARK  169  A    between atoms: _417  and  _418
REMARK  170  A    between atoms: _421  and  _423
REMARK  171  A    between atoms: _423  and  _424
REMARK  172  A    between atoms: _423  and  _426
REMARK  173  A    between atoms: _429  and  _431
REMARK  174  A    between atoms: _431  and  _432
REMARK  175  A    between atoms: _431  and  _434
REMARK  176  A    between atoms: _434  and  _435
REMARK  177  A    between atoms: _445  and  _447
REMARK  178  A    between atoms: _447  and  _448
REMARK  179  A    between atoms: _447  and  _450
REMARK  180  A    between atoms: _450  and  _451
REMARK  181  A    between atoms: _456  and  _457
REMARK  182  A    between atoms: _459  and  _461
REMARK  183  A    between atoms: _461  and  _462
REMARK  184  A    between atoms: _461  and  _464
REMARK  185  A    between atoms: _464  and  _465
REMARK  186  A    between atoms: _470  and  _471
REMARK  187  A    between atoms: _473  and  _475
REMARK  188  A    between atoms: _475  and  _476
REMARK  189  A    between atoms: _475  and  _478
REMARK  190  A    between atoms: _478  and  _479
REMARK  191  A    between atoms: _482  and  _484
REMARK  192  A    between atoms: _484  and  _485
REMARK  193  A    between atoms: _484  and  _487
REMARK  194  A    between atoms: _487  and  _488
REMARK  195  A    between atoms: _488  and  _489
REMARK  196  A    between atoms: _489  and  _490
REMARK  197  A    between atoms: _490  and  _491
REMARK  198  A    between atoms: _495  and  _497
REMARK  199  A    between atoms: _497  and  _498
REMARK  200  A    between atoms: _497  and  _500
REMARK  201  A    between atoms: _500  and  _501
REMARK  202  A    between atoms: _504  and  _506
REMARK  203  A    between atoms: _506  and  _507
REMARK  204  A    between atoms: _506  and  _509
REMARK  205  A    between atoms: _512  and  _514
REMARK  206  A    between atoms: _514  and  _515
REMARK  207  A    between atoms: _514  and  _517
REMARK  208  A    between atoms: _517  and  _518
REMARK  209  A    between atoms: _521  and  _523
REMARK  210  A    between atoms: _523  and  _524
REMARK  211  A    between atoms: _523  and  _526
REMARK  212  A    between atoms: _526  and  _527
REMARK  213  A    between atoms: _529  and  _531
REMARK  214  A    between atoms: _531  and  _532
REMARK  215  A    between atoms: _534  and  _536
REMARK  216  A    between atoms: _536  and  _537
REMARK  217  A    between atoms: _536  and  _539
REMARK  218  A    between atoms: _539  and  _540
REMARK  219  A    between atoms: _543  and  _545
REMARK  220  A    between atoms: _545  and  _546
REMARK  221  A    between atoms: _545  and  _548
REMARK  222  A    between atoms: _548  and  _549
REMARK  223  A    between atoms: _552  and  _554
REMARK  224  A    between atoms: _554  and  _555
REMARK  225  A    between atoms: _554  and  _557
REMARK  226  A    between atoms: _557  and  _558
REMARK  227  A    between atoms: _563  and  _565
REMARK  228  A    between atoms: _565  and  _566
REMARK  229  A    between atoms: _565  and  _568
REMARK  230  A    between atoms: _568  and  _569
REMARK  231  A    between atoms: _572  and  _574
REMARK  232  A    between atoms: _574  and  _575
REMARK  233  A    between atoms: _574  and  _577
REMARK  234  A    between atoms: _577  and  _578
REMARK  235  A    between atoms: _578  and  _579
REMARK  236  A    between atoms: _579  and  _580
REMARK  237  A    between atoms: _589  and  _591
REMARK  238  A    between atoms: _591  and  _592
REMARK  239  A    between atoms: _591  and  _594
REMARK  240  A    between atoms: _594  and  _595
REMARK  241  A    between atoms: _598  and  _600
REMARK  242  A    between atoms: _600  and  _601
REMARK  243  A    between atoms: _600  and  _603
REMARK  244  A    between atoms: _603  and  _604
REMARK  245  A    between atoms: _604  and  _605
REMARK  246  A    between atoms: _605  and  _606
REMARK  247  A    between atoms: _615  and  _617
REMARK  248  A    between atoms: _617  and  _618
REMARK  249  A    between atoms: _617  and  _620
REMARK  250  A    between atoms: _620  and  _621
REMARK  251  A    between atoms: _621  and  _622
REMARK  252  A    between atoms: _622  and  _623
REMARK  253  A    between atoms: _623  and  _624
REMARK  254  A    between atoms: _628  and  _630
REMARK  255  A    between atoms: _630  and  _631
REMARK  256  A    between atoms: _630  and  _633
REMARK  257  A    between atoms: _633  and  _634
REMARK  258  A    between atoms: _640  and  _642
REMARK  259  A    between atoms: _642  and  _643
REMARK  260  A    between atoms: _646  and  _648
REMARK  261  A    between atoms: _648  and  _649
REMARK  262  A    between atoms: _648  and  _651
REMARK  263  A    between atoms: _651  and  _652
REMARK  264  A    between atoms: _655  and  _657
REMARK  265  A    between atoms: _657  and  _658
REMARK  266  A    between atoms: _657  and  _660
REMARK  267  A    between atoms: _660  and  _661
REMARK  268  A    between atoms: _663  and  _665
REMARK  269  A    between atoms: _665  and  _666
REMARK  270  A    between atoms: _665  and  _668
REMARK  271  A    between atoms: _668  and  _669
REMARK  272  A    between atoms: _669  and  _670
REMARK  273  A    between atoms: _675  and  _677
REMARK  274  A    between atoms: _677  and  _678
REMARK  275  A    between atoms: _677  and  _680
REMARK  276  A    between atoms: _680  and  _681
REMARK  277  A    between atoms: _683  and  _685
REMARK  278  A    between atoms: _685  and  _686
REMARK  279  A    between atoms: _685  and  _688
REMARK  280  A    between atoms: _688  and  _689
REMARK  281  A    between atoms: _691  and  _693
REMARK  282  A    between atoms: _693  and  _694
REMARK  283  A    between atoms: _693  and  _696
REMARK  284  A    between atoms: _696  and  _697
REMARK  285  A    between atoms: _700  and  _702
REMARK  286  A    between atoms: _702  and  _703
REMARK  287  A    between atoms: _705  and  _707
REMARK  288  A    between atoms: _707  and  _708
REMARK  289  A    between atoms: _707  and  _710
REMARK  290  A    between atoms: _710  and  _711
REMARK  291  A    between atoms: _714  and  _716
REMARK  292  A    between atoms: _716  and  _717
REMARK  293  A    between atoms: _716  and  _719
REMARK  294  A    between atoms: _722  and  _724
REMARK  295  A    between atoms: _724  and  _725
REMARK  296  A    between atoms: _724  and  _727
REMARK  297  A    between atoms: _727  and  _728
REMARK  298  A    between atoms: _728  and  _729
REMARK  299  A    between atoms: _731  and  _733
REMARK  300  A    between atoms: _733  and  _734
REMARK  301  A    between atoms: _736  and  _738
REMARK  302  A    between atoms: _738  and  _739
REMARK  303  A    between atoms: _742  and  _744
REMARK  304  A    between atoms: _744  and  _745
REMARK  305  A    between atoms: _744  and  _747
REMARK  306  A    between atoms: _750  and  _752
REMARK  307  A    between atoms: _752  and  _753
REMARK  308  A    between atoms: _752  and  _755
REMARK  309  A    between atoms: _755  and  _756
REMARK  310  A    between atoms: _756  and  _757
REMARK                            x       y       z     vdW  Elec       q    Type
REMARK                         _______ _______ _______ _____ _____    ______ ____
ROOT
ATOM      1  CA  TYR A   2      -7.390   7.914  37.931  0.00  0.00    +0.153 C 
ENDROOT
BRANCH   1   3
ATOM      2  C   TRP A   1      -9.075   7.925  39.678  0.00  0.00    +0.239 C 
ATOM      3  N   TYR A   2      -7.815   7.732  39.320  0.00  0.00    -0.297 N 
ATOM      4  H   TYR A   2      -7.117   7.447  40.036  0.00  0.00    +0.150 HD
ATOM      5  O   TRP A   1      -9.810   8.696  39.100  0.00  0.00    -0.274 OA
BRANCH   2   6
ATOM      6  CA  TRP A   1      -9.593   7.138  40.867  0.00  0.00    +0.149 C 
BRANCH   6   7
ATOM      7  N   TRP A   1     -10.094   5.868  40.324  0.00  0.00    -0.238 NA
ATOM      8  H   TRP A   1      -9.548   5.361  39.598  0.00  0.00    +0.142 HD
ENDBRANCH   6   7
BRANCH   6   9
ATOM      9  CB  TRP A   1      -8.588   6.978  42.060  0.00  0.00    +0.054 C 
BRANCH   9  10
ATOM     10  CG  TRP A   1      -7.350   6.121  41.873  0.00  0.00    -0.002 A 
ATOM     11  CD2 TRP A   1      -6.062   6.308  42.502  0.00  0.00    +0.013 A 
ATOM     12  CE3 TRP A   1      -5.546   7.251  43.437  0.00  0.00    +0.001 A 
ATOM     13  CZ3 TRP A   1      -4.218   7.126  43.860  0.00  0.00    +0.000 A 
ATOM     14  CH2 TRP A   1      -3.401   6.086  43.376  0.00  0.00    +0.001 A 
ATOM     15  CZ2 TRP A   1      -3.883   5.148  42.480  0.00  0.00    +0.017 A 
ATOM     16  CE2 TRP A   1      -5.218   5.267  42.051  0.00  0.00    +0.056 A 
ATOM     17  NE1 TRP A   1      -5.943   4.473  41.185  0.00  0.00    -0.352 N 
ATOM     18  HE1 TRP A   1      -5.574   3.636  40.690  0.00  0.00    +0.166 HD
ATOM     19  CD1 TRP A   1      -7.223   4.955  41.075  0.00  0.00    +0.068 A 
ENDBRANCH   9  10
ENDBRANCH   6   9
ENDBRANCH   2   6
ENDBRANCH   1   3
BRANCH   1  20
ATOM     20  C   TYR A   2      -8.026   6.770  37.107  0.00  0.00    +0.241 C 
ATOM     21  O   TYR A   2      -8.599   5.795  37.671  0.00  0.00    -0.273 OA
ATOM     22  N   TYR A   3      -7.911   6.874  35.770  0.00  0.00    -0.298 N 
ATOM     23  H   TYR A   3      -7.608   7.774  35.346  0.00  0.00    +0.150 HD
BRANCH  22  24
ATOM     24  CA  TYR A   3      -8.212   5.722  34.905  0.00  0.00    +0.141 C 
BRANCH  24  25
ATOM     25  C   TYR A   3      -7.022   4.764  34.925  0.00  0.00    +0.227 C 
ATOM     26  O   TYR A   3      -6.224   4.713  33.995  0.00  0.00    -0.286 OA
ENDBRANCH  24  25
BRANCH  24  27
ATOM     27  CB  TYR A   3      -8.579   6.165  33.485  0.00  0.00    +0.054 C 
BRANCH  27  28
ATOM     28  CG  TYR A   3      -9.921   6.833  33.464  0.00  0.00    -0.020 A 
ATOM     29  CD2 TYR A   3     -11.100   6.069  33.500  0.00  0.00    -0.001 A 
ATOM     30  CE2 TYR A   3     -12.333   6.663  33.510  0.00  0.00    +0.036 A 
ATOM     31  CZ  TYR A   3     -12.391   8.081  33.480  0.00  0.00    +0.134 A 
ATOM     32  CE1 TYR A   3     -11.278   8.845  33.417  0.00  0.00    +0.036 A 
ATOM     33  CD1 TYR A   3     -10.017   8.218  33.432  0.00  0.00    -0.001 A 
BRANCH  31  34
ATOM     34  OH  TYR A   3     -13.595   8.718  33.489  0.00  0.00    -0.506 OA
ATOM     35  HH  TYR A   3     -13.449   9.697  33.465  0.00  0.00    +0.292 HD
ENDBRANCH  31  34
ENDBRANCH  27  28
ENDBRANCH  24  27
ENDBRANCH  22  24
ENDBRANCH   1  20
BRANCH   1  36
ATOM     36  CB  TYR A   2      -5.903   7.762  37.851  0.00  0.00    +0.055 C 
BRANCH  36  37
ATOM     37  CG  TYR A   2      -5.099   8.729  38.679  0.00  0.00    -0.020 A 
ATOM     38  CD2 TYR A   2      -4.606   8.362  39.937  0.00  0.00    -0.001 A 
ATOM     39  CE2 TYR A   2      -3.844   9.277  40.719  0.00  0.00    +0.036 A 
ATOM     40  CZ  TYR A   2      -3.634  10.562  40.248  0.00  0.00    +0.134 A 
ATOM     41  CE1 TYR A   2      -4.106  10.947  38.993  0.00  0.00    +0.036 A 
ATOM     42  CD1 TYR A   2      -4.862  10.030  38.230  0.00  0.00    -0.001 A 
BRANCH  40  43
ATOM     43  OH  TYR A   2      -2.860  11.452  40.963  0.00  0.00    -0.506 OA
ATOM     44  HH  TYR A   2      -2.820  12.315  40.480  0.00  0.00    +0.292 HD
ENDBRANCH  40  43
ENDBRANCH  36  37
ENDBRANCH   1  36
TORSDOF 14
REMARK  Name = ../refined-set-2016/3i25/3i25_pocket.pdb
REMARK  310 active torsions:
REMARK  status: ('A' for Active; 'I' for Inactive)
REMARK    1  A    between atoms: _1  and  _3
REMARK    2  A    between atoms: _3  and  _4
REMARK    3  A    between atoms: _3  and  _6
REMARK    4  A    between atoms: _6  and  _7
REMARK    5  A    between atoms: _7  and  _8
REMARK    6  A    between atoms: _8  and  _9
REMARK    7  A    between atoms: _9  and  _10
REMARK    8  A    between atoms: _14  and  _16
REMARK    9  A    between atoms: _16  and  _17
REMARK   10  A    between atoms: _16  and  _19
REMARK   11  A    between atoms: _19  and  _20
REMARK   12  A    between atoms: _22  and  _24
REMARK   13  A    between atoms: _24  and  _25
REMARK   14  A    between atoms: _27  and  _29
REMARK   15  A    between atoms: _29  and  _30
REMARK   16  A    between atoms: _29  and  _32
REMARK   17  A    between atoms: _32  and  _33
REMARK   18  A    between atoms: _33  and  _34
REMARK   19  A    between atoms: _39  and  _41
REMARK   20  A    between atoms: _41  and  _42
REMARK   21  A    between atoms: _44  and  _46
REMARK   22  A    between atoms: _46  and  _47
REMARK   23  A    between atoms: _46  and  _49
REMARK   24  A    between atoms: _49  and  _50
REMARK   25  A    between atoms: _55  and  _56
REMARK   26  A    between atoms: _58  and  _60
REMARK   27  A    between atoms: _60  and  _61
REMARK   28  A    between atoms: _60  and  _63
REMARK   29  A    between atoms: _63  and  _64
REMARK   30  A    between atoms: _67  and  _69
REMARK   31  A    between atoms: _69  and  _70
REMARK   32  A    between atoms: _69  and  _72
REMARK   33  A    between atoms: _75  and  _77
REMARK   34  A    between atoms: _77  and  _78
REMARK   35  A    between atoms: _77  and  _80
REMARK   36  A    between atoms: _80  and  _81
REMARK   37  A    between atoms: _84  and  _86
REMARK   38  A    between atoms: _86  and  _87
REMARK   39  A    between atoms: _86  and  _89
REMARK   40  A    between atoms: _89  and  _90
REMARK   41  A    between atoms: _93  and  _95
REMARK   42  A    between atoms: _95  and  _96
REMARK   43  A    between atoms: _98  and  _100
REMARK   44  A    between atoms: _100  and  _101
REMARK   45  A    between atoms: _100  and  _103
REMARK   46  A    between atoms: _103  and  _104
REMARK   47  A    between atoms: _106  and  _108
REMARK   48  A    between atoms: _108  and  _109
REMARK   49  A    between atoms: _108  and  _111
REMARK   50  A    between atoms: _111  and  _112
REMARK   51  A    between atoms: _114  and  _116
REMARK   52  A    between atoms: _116  and  _117
REMARK   53  A    between atoms: _116  and  _119
REMARK   54  A    between atoms: _119  and  _120
REMARK   55  A    between atoms: _125  and  _127
REMARK   56  A    between atoms: _127  and  _128
REMARK   57  A    between atoms: _127  and  _130
REMARK   58  A    between atoms: _130  and  _131
REMARK   59  A    between atoms: _136  and  _137
REMARK   60  A    between atoms: _139  and  _141
REMARK   61  A    between atoms: _141  and  _142
REMARK   62  A    between atoms: _141  and  _144
REMARK   63  A    between atoms: _148  and  _149
REMARK   64  A    between atoms: _154  and  _156
REMARK   65  A    between atoms: _156  and  _157
REMARK   66  A    between atoms: _156  and  _159
REMARK   67  A    between atoms: _159  and  _160
REMARK   68  A    between atoms: _165  and  _166
REMARK   69  A    between atoms: _168  and  _170
REMARK   70  A    between atoms: _170  and  _171
REMARK   71  A    between atoms: _170  and  _173
REMARK   72  A    between atoms: _173  and  _174
REMARK   73  A    between atoms: _177  and  _179
REMARK   74  A    between atoms: _179  and  _180
REMARK   75  A    between atoms: _179  and  _182
REMARK   76  A    between atoms: _182  and  _183
REMARK   77  A    between atoms: _183  and  _184
REMARK   78  A    between atoms: _189  and  _191
REMARK   79  A    between atoms: _191  and  _192
REMARK   80  A    between atoms: _194  and  _196
REMARK   81  A    between atoms: _196  and  _197
REMARK   82  A    between atoms: _196  and  _199
REMARK   83  A    between atoms: _199  and  _200
REMARK   84  A    between atoms: _200  and  _201
REMARK   85  A    between atoms: _201  and  _202
REMARK   86  A    between atoms: _202  and  _203
REMARK   87  A    between atoms: _207  and  _209
REMARK   88  A    between atoms: _209  and  _210
REMARK   89  A    between atoms: _209  and  _212
REMARK   90  A    between atoms: _212  and  _213
REMARK   91  A    between atoms: _223  and  _225
REMARK   92  A    between atoms: _225  and  _226
REMARK   93  A    between atoms: _225  and  _228
REMARK   94  A    between atoms: _228  and  _229
REMARK   95  A    between atoms: _232  and  _234
REMARK   96  A    between atoms: _234  and  _235
REMARK   97  A    between atoms: _234  and  _237
REMARK   98  A    between atoms: _237  and  _238
REMARK   99  A    between atoms: _238  and  _239
REMARK  100  A    between atoms: _239  and  _240
REMARK  101  A    between atoms: _240  and  _241
REMARK  102  A    between atoms: _245  and  _247
REMARK  103  A    between atoms: _247  and  _248
REMARK  104  A    between atoms: _247  and  _250
REMARK  105  A    between atoms: _250  and  _251
REMARK  106  A    between atoms: _257  and  _259
REMARK  107  A    between atoms: _259  and  _260
REMARK  108  A    between atoms: _259  and  _262
REMARK  109  A    between atoms: _262  and  _263
REMARK  110  A    between atoms: _269  and  _271
REMARK  111  A    between atoms: _271  and  _272
REMARK  112  A    between atoms: _271  and  _274
REMARK  113  A    between atoms: _274  and  _275
REMARK  114  A    between atoms: _278  and  _280
REMARK  115  A    between atoms: _280  and  _281
REMARK  116  A    between atoms: _280  and  _283
REMARK  117  A    between atoms: _283  and  _284
REMARK  118  A    between atoms: _289  and  _291
REMARK  119  A    between atoms: _291  and  _292
REMARK  120  A    between atoms: _291  and  _294
REMARK  121  A    between atoms: _294  and  _295
REMARK  122  A    between atoms: _297  and  _299
REMARK  123  A    between atoms: _299  and  _300
REMARK  124  A    between atoms: _299  and  _302
REMARK  125  A    between atoms: _302  and  _303
REMARK  126  A    between atoms: _313  and  _315
REMARK  127  A    between atoms: _315  and  _316
REMARK  128  A    between atoms: _318  and  _320
REMARK  129  A    between atoms: _320  and  _321
REMARK  130  A    between atoms: _320  and  _323
REMARK  131  A    between atoms: _323  and  _324
REMARK  132  A    between atoms: _327  and  _329
REMARK  133  A    between atoms: _329  and  _330
REMARK  134  A    between atoms: _329  and  _332
REMARK  135  A    between atoms: _332  and  _333
REMARK  136  A    between atoms: _336  and  _338
REMARK  137  A    between atoms: _338  and  _339
REMARK  138  A    between atoms: _341  and  _343
REMARK  139  A    between atoms: _343  and  _344
REMARK  140  A    between atoms: _343  and  _346
REMARK  141  A    between atoms: _346  and  _347
REMARK  142  A    between atoms: _350  and  _352
REMARK  143  A    between atoms: _352  and  _353
REMARK  144  A    between atoms: _356  and  _358
REMARK  145  A    between atoms: _358  and  _359
REMARK  146  A    between atoms: _358  and  _361
REMARK  147  A    between atoms: _361  and  _362
REMARK  148  A    between atoms: _367  and  _368
REMARK  149  A    between atoms: _370  and  _372
REMARK  150  A    between atoms: _372  and  _373
REMARK  151  A    between atoms: _372  and  _375
REMARK  152  A    between atoms: _375  and  _376
REMARK  153  A    between atoms: _376  and  _377
REMARK  154  A    between atoms: _380  and  _382
REMARK  155  A    between atoms: _382  and  _383
REMARK  156  A    between atoms: _382  and  _385
REMARK  157  A    between atoms: _385  and  _386
REMARK  158  A    between atoms: _389  and  _391
REMARK  159  A    between atoms: _391  and  _392
REMARK  160  A    between atoms: _395  and  _397
REMARK  161  A    between atoms: _397  and  _398
REMARK  162  A    between atoms: _397  and  _400
REMARK  163  A    between atoms: _400  and  _401
REMARK  164  A    between atoms: _401  and  _402
REMARK  165  A    between atoms: _402  and  _403
REMARK  166  A    between atoms: _412  and  _414
REMARK  167  A    between atoms: _414  and  _415
REMARK  168  A    between atoms: _414  and  _417
REMARK  169  A    between atoms: _417  and  _418
REMARK  170  A    between atoms: _421  and  _423
REMARK  171  A    between atoms: _423  and  _424
REMARK  172  A    between atoms: _423  and  _426
REMARK  173  A    between atoms: _429  and  _431
REMARK  174  A    between atoms: _431  and  _432
REMARK  175  A    between atoms: _431  and  _434
REMARK  176  A    between atoms: _434  and  _435
REMARK  177  A    between atoms: _445  and  _447
REMARK  178  A    between atoms: _447  and  _448
REMARK  179  A    between atoms: _447  and  _450
REMARK  180  A    between atoms: _450  and  _451
REMARK  181  A    between atoms: _456  and  _457
REMARK  182  A    between atoms: _459  and  _461
REMARK  183  A    between atoms: _461  and  _462
REMARK  184  A    between atoms: _461  and  _464
REMARK  185  A    between atoms: _464  and  _465
REMARK  186  A    between atoms: _470  and  _471
REMARK  187  A    between atoms: _473  and  _475
REMARK  188  A    between atoms: _475  and  _476
REMARK  189  A    between atoms: _475  and  _478
REMARK  190  A    between atoms: _478  and  _479
REMARK  191  A    between atoms: _482  and  _484
REMARK  192  A    between atoms: _484  and  _485
REMARK  193  A    between atoms: _484  and  _487
REMARK  194  A    between atoms: _487  and  _488
REMARK  195  A    between atoms: _488  and  _489
REMARK  196  A    between atoms: _489  and  _490
REMARK  197  A    between atoms: _490  and  _491
REMARK  198  A    between atoms: _495  and  _497
REMARK  199  A    between atoms: _497  and  _498
REMARK  200  A    between atoms: _497  and  _500
REMARK  201  A    between atoms: _500  and  _501
REMARK  202  A    between atoms: _504  and  _506
REMARK  203  A    between atoms: _506  and  _507
REMARK  204  A    between atoms: _506  and  _509
REMARK  205  A    between atoms: _512  and  _514
REMARK  206  A    between atoms: _514  and  _515
REMARK  207  A    between atoms: _514  and  _517
REMARK  208  A    between atoms: _517  and  _518
REMARK  209  A    between atoms: _521  and  _523
REMARK  210  A    between atoms: _523  and  _524
REMARK  211  A    between atoms: _523  and  _526
REMARK  212  A    between atoms: _526  and  _527
REMARK  213  A    between atoms: _529  and  _531
REMARK  214  A    between atoms: _531  and  _532
REMARK  215  A    between atoms: _534  and  _536
REMARK  216  A    between atoms: _536  and  _537
REMARK  217  A    between atoms: _536  and  _539
REMARK  218  A    between atoms: _539  and  _540
REMARK  219  A    between atoms: _543  and  _545
REMARK  220  A    between atoms: _545  and  _546
REMARK  221  A    between atoms: _545  and  _548
REMARK  222  A    between atoms: _548  and  _549
REMARK  223  A    between atoms: _552  and  _554
REMARK  224  A    between atoms: _554  and  _555
REMARK  225  A    between atoms: _554  and  _557
REMARK  226  A    between atoms: _557  and  _558
REMARK  227  A    between atoms: _563  and  _565
REMARK  228  A    between atoms: _565  and  _566
REMARK  229  A    between atoms: _565  and  _568
REMARK  230  A    between atoms: _568  and  _569
REMARK  231  A    between atoms: _572  and  _574
REMARK  232  A    between atoms: _574  and  _575
REMARK  233  A    between atoms: _574  and  _577
REMARK  234  A    between atoms: _577  and  _578
REMARK  235  A    between atoms: _578  and  _579
REMARK  236  A    between atoms: _579  and  _580
REMARK  237  A    between atoms: _589  and  _591
REMARK  238  A    between atoms: _591  and  _592
REMARK  239  A    between atoms: _591  and  _594
REMARK  240  A    between atoms: _594  and  _595
REMARK  241  A    between atoms: _598  and  _600
REMARK  242  A    between atoms: _600  and  _601
REMARK  243  A    between atoms: _600  and  _603
REMARK  244  A    between atoms: _603  and  _604
REMARK  245  A    between atoms: _604  and  _605
REMARK  246  A    between atoms: _605  and  _606
REMARK  247  A    between atoms: _615  and  _617
REMARK  248  A    between atoms: _617  and  _618
REMARK  249  A    between atoms: _617  and  _620
REMARK  250  A    between atoms: _620  and  _621
REMARK  251  A    between atoms: _621  and  _622
REMARK  252  A    between atoms: _622  and  _623
REMARK  253  A    between atoms: _623  and  _624
REMARK  254  A    between atoms: _628  and  _630
REMARK  255  A    between atoms: _630  and  _631
REMARK  256  A    between atoms: _630  and  _633
REMARK  257  A    between atoms: _633  and  _634
REMARK  258  A    between atoms: _640  and  _642
REMARK  259  A    between atoms: _642  and  _643
REMARK  260  A    between atoms: _646  and  _648
REMARK  261  A    between atoms: _648  and  _649
REMARK  262  A    between atoms: _648  and  _651
REMARK  263  A    between atoms: _651  and  _652
REMARK  264  A    between atoms: _655  and  _657
REMARK  265  A    between atoms: _657  and  _658
REMARK  266  A    between atoms: _657  and  _660
REMARK  267  A    between atoms: _660  and  _661
REMARK  268  A    between atoms: _663  and  _665
REMARK  269  A    between atoms: _665  and  _666
REMARK  270  A    between atoms: _665  and  _668
REMARK  271  A    between atoms: _668  and  _669
REMARK  272  A    between atoms: _669  and  _670
REMARK  273  A    between atoms: _675  and  _677
REMARK  274  A    between atoms: _677  and  _678
REMARK  275  A    between atoms: _677  and  _680
REMARK  276  A    between atoms: _680  and  _681
REMARK  277  A    between atoms: _683  and  _685
REMARK  278  A    between atoms: _685  and  _686
REMARK  279  A    between atoms: _685  and  _688
REMARK  280  A    between atoms: _688  and  _689
REMARK  281  A    between atoms: _691  and  _693
REMARK  282  A    between atoms: _693  and  _694
REMARK  283  A    between atoms: _693  and  _696
REMARK  284  A    between atoms: _696  and  _697
REMARK  285  A    between atoms: _700  and  _702
REMARK  286  A    between atoms: _702  and  _703
REMARK  287  A    between atoms: _705  and  _707
REMARK  288  A    between atoms: _707  and  _708
REMARK  289  A    between atoms: _707  and  _710
REMARK  290  A    between atoms: _710  and  _711
REMARK  291  A    between atoms: _714  and  _716
REMARK  292  A    between atoms: _716  and  _717
REMARK  293  A    between atoms: _716  and  _719
REMARK  294  A    between atoms: _722  and  _724
REMARK  295  A    between atoms: _724  and  _725
REMARK  296  A    between atoms: _724  and  _727
REMARK  297  A    between atoms: _727  and  _728
REMARK  298  A    between atoms: _728  and  _729
REMARK  299  A    between atoms: _731  and  _733
REMARK  300  A    between atoms: _733  and  _734
REMARK  301  A    between atoms: _736  and  _738
REMARK  302  A    between atoms: _738  and  _739
REMARK  303  A    between atoms: _742  and  _744
REMARK  304  A    between atoms: _744  and  _745
REMARK  305  A    between atoms: _744  and  _747
REMARK  306  A    between atoms: _750  and  _752
REMARK  307  A    between atoms: _752  and  _753
REMARK  308  A    between atoms: _752  and  _755
REMARK  309  A    between atoms: _755  and  _756
REMARK  310  A    between atoms: _756  and  _757
REMARK                            x       y       z     vdW  Elec       q    Type
REMARK                         _______ _______ _______ _____ _____    ______ ____
ROOT
ATOM      1  C   ASP A   1       1.862   2.633  40.893  0.00  0.00    +0.239 C 
ATOM      2  O   ASP A   1       0.971   2.227  41.630  0.00  0.00    -0.274 OA
ATOM      3  N   LYS A   2       1.613   3.100  39.667  0.00  0.00    -0.298 N 
ATOM      4  H   LYS A   2       2.364   3.615  39.165  0.00  0.00    +0.150 HD
ENDROOT
BRANCH   1   5
ATOM      5  CA  ASP A   1       3.330   2.685  41.372  0.00  0.00    +0.156 C 
BRANCH   5   6
ATOM      6  N   ASP A   1       4.194   3.331  40.362  0.00  0.00    -0.238 NA
ATOM      7  H   ASP A   1       4.076   4.353  40.209  0.00  0.00    +0.142 HD
ENDBRANCH   5   6
BRANCH   5   8
ATOM      8  CB  ASP A   1       3.369   3.563  42.606  0.00  0.00    +0.140 C 
BRANCH   8   9
ATOM      9  CG  ASP A   1       2.830   4.947  42.325  0.00  0.00    +0.367 C 
ATOM     10  OD2 ASP A   1       1.839   5.316  42.952  0.00  0.00    -0.246 OA
ATOM     11  OD1 ASP A   1       3.330   5.642  41.419  0.00  0.00    -0.246 OA
ENDBRANCH   8   9
ENDBRANCH   5   8
ENDBRANCH   1   5
BRANCH   3  12
ATOM     12  CA  LYS A   2       0.318   2.912  39.003  0.00  0.00    +0.137 C 
BRANCH  12  13
ATOM     13  C   LYS A   2       0.582   3.187  37.519  0.00  0.00    +0.227 C 
ATOM     14  O   LYS A   2       1.613   3.725  37.163  0.00  0.00    -0.286 OA
ENDBRANCH  12  13
BRANCH  12  15
ATOM     15  CB  LYS A   2      -0.709   3.913  39.521  0.00  0.00    +0.028 C 
BRANCH  15  16
ATOM     16  CG  LYS A   2      -0.258   5.380  39.274  0.00  0.00    -0.000 C 
BRANCH  16  17
ATOM     17  CD  LYS A   2      -1.317   6.369  39.713  0.00  0.00    -0.024 C 
BRANCH  17  18
ATOM     18  CE  LYS A   2      -0.712   7.724  39.972  0.00  0.00    -0.086 C 
BRANCH  18  19
ATOM     19  NZ  LYS A   2       0.371   7.717  41.038  0.00  0.00    +0.380 N 
ATOM     20  HZ1 LYS A   2      -0.031   7.380  41.936  0.00  0.00    -0.089 HD
ATOM     21  HZ2 LYS A   2       0.740   8.681  41.162  0.00  0.00    -0.089 HD
ATOM     22  HZ3 LYS A   2       1.142   7.085  40.743  0.00  0.00    -0.089 HD
ENDBRANCH  18  19
ENDBRANCH  17  18
ENDBRANCH  16  17
ENDBRANCH  15  16
ENDBRANCH  12  15
ENDBRANCH   3  12
TORSDOF 11
REMARK  Name = ../refined-set-2016/3i25/3i25_pocket.pdb
REMARK  310 active torsions:
REMARK  status: ('A' for Active; 'I' for Inactive)
REMARK    1  A    between atoms: _1  and  _3
REMARK    2  A    between atoms: _3  and  _4
REMARK    3  A    between atoms: _3  and  _6
REMARK    4  A    between atoms: _6  and  _7
REMARK    5  A    between atoms: _7  and  _8
REMARK    6  A    between atoms: _8  and  _9
REMARK    7  A    between atoms: _9  and  _10
REMARK    8  A    between atoms: _14  and  _16
REMARK    9  A    between atoms: _16  and  _17
REMARK   10  A    between atoms: _16  and  _19
REMARK   11  A    between atoms: _19  and  _20
REMARK   12  A    between atoms: _22  and  _24
REMARK   13  A    between atoms: _24  and  _25
REMARK   14  A    between atoms: _27  and  _29
REMARK   15  A    between atoms: _29  and  _30
REMARK   16  A    between atoms: _29  and  _32
REMARK   17  A    between atoms: _32  and  _33
REMARK   18  A    between atoms: _33  and  _34
REMARK   19  A    between atoms: _39  and  _41
REMARK   20  A    between atoms: _41  and  _42
REMARK   21  A    between atoms: _44  and  _46
REMARK   22  A    between atoms: _46  and  _47
REMARK   23  A    between atoms: _46  and  _49
REMARK   24  A    between atoms: _49  and  _50
REMARK   25  A    between atoms: _55  and  _56
REMARK   26  A    between atoms: _58  and  _60
REMARK   27  A    between atoms: _60  and  _61
REMARK   28  A    between atoms: _60  and  _63
REMARK   29  A    between atoms: _63  and  _64
REMARK   30  A    between atoms: _67  and  _69
REMARK   31  A    between atoms: _69  and  _70
REMARK   32  A    between atoms: _69  and  _72
REMARK   33  A    between atoms: _75  and  _77
REMARK   34  A    between atoms: _77  and  _78
REMARK   35  A    between atoms: _77  and  _80
REMARK   36  A    between atoms: _80  and  _81
REMARK   37  A    between atoms: _84  and  _86
REMARK   38  A    between atoms: _86  and  _87
REMARK   39  A    between atoms: _86  and  _89
REMARK   40  A    between atoms: _89  and  _90
REMARK   41  A    between atoms: _93  and  _95
REMARK   42  A    between atoms: _95  and  _96
REMARK   43  A    between atoms: _98  and  _100
REMARK   44  A    between atoms: _100  and  _101
REMARK   45  A    between atoms: _100  and  _103
REMARK   46  A    between atoms: _103  and  _104
REMARK   47  A    between atoms: _106  and  _108
REMARK   48  A    between atoms: _108  and  _109
REMARK   49  A    between atoms: _108  and  _111
REMARK   50  A    between atoms: _111  and  _112
REMARK   51  A    between atoms: _114  and  _116
REMARK   52  A    between atoms: _116  and  _117
REMARK   53  A    between atoms: _116  and  _119
REMARK   54  A    between atoms: _119  and  _120
REMARK   55  A    between atoms: _125  and  _127
REMARK   56  A    between atoms: _127  and  _128
REMARK   57  A    between atoms: _127  and  _130
REMARK   58  A    between atoms: _130  and  _131
REMARK   59  A    between atoms: _136  and  _137
REMARK   60  A    between atoms: _139  and  _141
REMARK   61  A    between atoms: _141  and  _142
REMARK   62  A    between atoms: _141  and  _144
REMARK   63  A    between atoms: _148  and  _149
REMARK   64  A    between atoms: _154  and  _156
REMARK   65  A    between atoms: _156  and  _157
REMARK   66  A    between atoms: _156  and  _159
REMARK   67  A    between atoms: _159  and  _160
REMARK   68  A    between atoms: _165  and  _166
REMARK   69  A    between atoms: _168  and  _170
REMARK   70  A    between atoms: _170  and  _171
REMARK   71  A    between atoms: _170  and  _173
REMARK   72  A    between atoms: _173  and  _174
REMARK   73  A    between atoms: _177  and  _179
REMARK   74  A    between atoms: _179  and  _180
REMARK   75  A    between atoms: _179  and  _182
REMARK   76  A    between atoms: _182  and  _183
REMARK   77  A    between atoms: _183  and  _184
REMARK   78  A    between atoms: _189  and  _191
REMARK   79  A    between atoms: _191  and  _192
REMARK   80  A    between atoms: _194  and  _196
REMARK   81  A    between atoms: _196  and  _197
REMARK   82  A    between atoms: _196  and  _199
REMARK   83  A    between atoms: _199  and  _200
REMARK   84  A    between atoms: _200  and  _201
REMARK   85  A    between atoms: _201  and  _202
REMARK   86  A    between atoms: _202  and  _203
REMARK   87  A    between atoms: _207  and  _209
REMARK   88  A    between atoms: _209  and  _210
REMARK   89  A    between atoms: _209  and  _212
REMARK   90  A    between atoms: _212  and  _213
REMARK   91  A    between atoms: _223  and  _225
REMARK   92  A    between atoms: _225  and  _226
REMARK   93  A    between atoms: _225  and  _228
REMARK   94  A    between atoms: _228  and  _229
REMARK   95  A    between atoms: _232  and  _234
REMARK   96  A    between atoms: _234  and  _235
REMARK   97  A    between atoms: _234  and  _237
REMARK   98  A    between atoms: _237  and  _238
REMARK   99  A    between atoms: _238  and  _239
REMARK  100  A    between atoms: _239  and  _240
REMARK  101  A    between atoms: _240  and  _241
REMARK  102  A    between atoms: _245  and  _247
REMARK  103  A    between atoms: _247  and  _248
REMARK  104  A    between atoms: _247  and  _250
REMARK  105  A    between atoms: _250  and  _251
REMARK  106  A    between atoms: _257  and  _259
REMARK  107  A    between atoms: _259  and  _260
REMARK  108  A    between atoms: _259  and  _262
REMARK  109  A    between atoms: _262  and  _263
REMARK  110  A    between atoms: _269  and  _271
REMARK  111  A    between atoms: _271  and  _272
REMARK  112  A    between atoms: _271  and  _274
REMARK  113  A    between atoms: _274  and  _275
REMARK  114  A    between atoms: _278  and  _280
REMARK  115  A    between atoms: _280  and  _281
REMARK  116  A    between atoms: _280  and  _283
REMARK  117  A    between atoms: _283  and  _284
REMARK  118  A    between atoms: _289  and  _291
REMARK  119  A    between atoms: _291  and  _292
REMARK  120  A    between atoms: _291  and  _294
REMARK  121  A    between atoms: _294  and  _295
REMARK  122  A    between atoms: _297  and  _299
REMARK  123  A    between atoms: _299  and  _300
REMARK  124  A    between atoms: _299  and  _302
REMARK  125  A    between atoms: _302  and  _303
REMARK  126  A    between atoms: _313  and  _315
REMARK  127  A    between atoms: _315  and  _316
REMARK  128  A    between atoms: _318  and  _320
REMARK  129  A    between atoms: _320  and  _321
REMARK  130  A    between atoms: _320  and  _323
REMARK  131  A    between atoms: _323  and  _324
REMARK  132  A    between atoms: _327  and  _329
REMARK  133  A    between atoms: _329  and  _330
REMARK  134  A    between atoms: _329  and  _332
REMARK  135  A    between atoms: _332  and  _333
REMARK  136  A    between atoms: _336  and  _338
REMARK  137  A    between atoms: _338  and  _339
REMARK  138  A    between atoms: _341  and  _343
REMARK  139  A    between atoms: _343  and  _344
REMARK  140  A    between atoms: _343  and  _346
REMARK  141  A    between atoms: _346  and  _347
REMARK  142  A    between atoms: _350  and  _352
REMARK  143  A    between atoms: _352  and  _353
REMARK  144  A    between atoms: _356  and  _358
REMARK  145  A    between atoms: _358  and  _359
REMARK  146  A    between atoms: _358  and  _361
REMARK  147  A    between atoms: _361  and  _362
REMARK  148  A    between atoms: _367  and  _368
REMARK  149  A    between atoms: _370  and  _372
REMARK  150  A    between atoms: _372  and  _373
REMARK  151  A    between atoms: _372  and  _375
REMARK  152  A    between atoms: _375  and  _376
REMARK  153  A    between atoms: _376  and  _377
REMARK  154  A    between atoms: _380  and  _382
REMARK  155  A    between atoms: _382  and  _383
REMARK  156  A    between atoms: _382  and  _385
REMARK  157  A    between atoms: _385  and  _386
REMARK  158  A    between atoms: _389  and  _391
REMARK  159  A    between atoms: _391  and  _392
REMARK  160  A    between atoms: _395  and  _397
REMARK  161  A    between atoms: _397  and  _398
REMARK  162  A    between atoms: _397  and  _400
REMARK  163  A    between atoms: _400  and  _401
REMARK  164  A    between atoms: _401  and  _402
REMARK  165  A    between atoms: _402  and  _403
REMARK  166  A    between atoms: _412  and  _414
REMARK  167  A    between atoms: _414  and  _415
REMARK  168  A    between atoms: _414  and  _417
REMARK  169  A    between atoms: _417  and  _418
REMARK  170  A    between atoms: _421  and  _423
REMARK  171  A    between atoms: _423  and  _424
REMARK  172  A    between atoms: _423  and  _426
REMARK  173  A    between atoms: _429  and  _431
REMARK  174  A    between atoms: _431  and  _432
REMARK  175  A    between atoms: _431  and  _434
REMARK  176  A    between atoms: _434  and  _435
REMARK  177  A    between atoms: _445  and  _447
REMARK  178  A    between atoms: _447  and  _448
REMARK  179  A    between atoms: _447  and  _450
REMARK  180  A    between atoms: _450  and  _451
REMARK  181  A    between atoms: _456  and  _457
REMARK  182  A    between atoms: _459  and  _461
REMARK  183  A    between atoms: _461  and  _462
REMARK  184  A    between atoms: _461  and  _464
REMARK  185  A    between atoms: _464  and  _465
REMARK  186  A    between atoms: _470  and  _471
REMARK  187  A    between atoms: _473  and  _475
REMARK  188  A    between atoms: _475  and  _476
REMARK  189  A    between atoms: _475  and  _478
REMARK  190  A    between atoms: _478  and  _479
REMARK  191  A    between atoms: _482  and  _484
REMARK  192  A    between atoms: _484  and  _485
REMARK  193  A    between atoms: _484  and  _487
REMARK  194  A    between atoms: _487  and  _488
REMARK  195  A    between atoms: _488  and  _489
REMARK  196  A    between atoms: _489  and  _490
REMARK  197  A    between atoms: _490  and  _491
REMARK  198  A    between atoms: _495  and  _497
REMARK  199  A    between atoms: _497  and  _498
REMARK  200  A    between atoms: _497  and  _500
REMARK  201  A    between atoms: _500  and  _501
REMARK  202  A    between atoms: _504  and  _506
REMARK  203  A    between atoms: _506  and  _507
REMARK  204  A    between atoms: _506  and  _509
REMARK  205  A    between atoms: _512  and  _514
REMARK  206  A    between atoms: _514  and  _515
REMARK  207  A    between atoms: _514  and  _517
REMARK  208  A    between atoms: _517  and  _518
REMARK  209  A    between atoms: _521  and  _523
REMARK  210  A    between atoms: _523  and  _524
REMARK  211  A    between atoms: _523  and  _526
REMARK  212  A    between atoms: _526  and  _527
REMARK  213  A    between atoms: _529  and  _531
REMARK  214  A    between atoms: _531  and  _532
REMARK  215  A    between atoms: _534  and  _536
REMARK  216  A    between atoms: _536  and  _537
REMARK  217  A    between atoms: _536  and  _539
REMARK  218  A    between atoms: _539  and  _540
REMARK  219  A    between atoms: _543  and  _545
REMARK  220  A    between atoms: _545  and  _546
REMARK  221  A    between atoms: _545  and  _548
REMARK  222  A    between atoms: _548  and  _549
REMARK  223  A    between atoms: _552  and  _554
REMARK  224  A    between atoms: _554  and  _555
REMARK  225  A    between atoms: _554  and  _557
REMARK  226  A    between atoms: _557  and  _558
REMARK  227  A    between atoms: _563  and  _565
REMARK  228  A    between atoms: _565  and  _566
REMARK  229  A    between atoms: _565  and  _568
REMARK  230  A    between atoms: _568  and  _569
REMARK  231  A    between atoms: _572  and  _574
REMARK  232  A    between atoms: _574  and  _575
REMARK  233  A    between atoms: _574  and  _577
REMARK  234  A    between atoms: _577  and  _578
REMARK  235  A    between atoms: _578  and  _579
REMARK  236  A    between atoms: _579  and  _580
REMARK  237  A    between atoms: _589  and  _591
REMARK  238  A    between atoms: _591  and  _592
REMARK  239  A    between atoms: _591  and  _594
REMARK  240  A    between atoms: _594  and  _595
REMARK  241  A    between atoms: _598  and  _600
REMARK  242  A    between atoms: _600  and  _601
REMARK  243  A    between atoms: _600  and  _603
REMARK  244  A    between atoms: _603  and  _604
REMARK  245  A    between atoms: _604  and  _605
REMARK  246  A    between atoms: _605  and  _606
REMARK  247  A    between atoms: _615  and  _617
REMARK  248  A    between atoms: _617  and  _618
REMARK  249  A    between atoms: _617  and  _620
REMARK  250  A    between atoms: _620  and  _621
REMARK  251  A    between atoms: _621  and  _622
REMARK  252  A    between atoms: _622  and  _623
REMARK  253  A    between atoms: _623  and  _624
REMARK  254  A    between atoms: _628  and  _630
REMARK  255  A    between atoms: _630  and  _631
REMARK  256  A    between atoms: _630  and  _633
REMARK  257  A    between atoms: _633  and  _634
REMARK  258  A    between atoms: _640  and  _642
REMARK  259  A    between atoms: _642  and  _643
REMARK  260  A    between atoms: _646  and  _648
REMARK  261  A    between atoms: _648  and  _649
REMARK  262  A    between atoms: _648  and  _651
REMARK  263  A    between atoms: _651  and  _652
REMARK  264  A    between atoms: _655  and  _657
REMARK  265  A    between atoms: _657  and  _658
REMARK  266  A    between atoms: _657  and  _660
REMARK  267  A    between atoms: _660  and  _661
REMARK  268  A    between atoms: _663  and  _665
REMARK  269  A    between atoms: _665  and  _666
REMARK  270  A    between atoms: _665  and  _668
REMARK  271  A    between atoms: _668  and  _669
REMARK  272  A    between atoms: _669  and  _670
REMARK  273  A    between atoms: _675  and  _677
REMARK  274  A    between atoms: _677  and  _678
REMARK  275  A    between atoms: _677  and  _680
REMARK  276  A    between atoms: _680  and  _681
REMARK  277  A    between atoms: _683  and  _685
REMARK  278  A    between atoms: _685  and  _686
REMARK  279  A    between atoms: _685  and  _688
REMARK  280  A    between atoms: _688  and  _689
REMARK  281  A    between atoms: _691  and  _693
REMARK  282  A    between atoms: _693  and  _694
REMARK  283  A    between atoms: _693  and  _696
REMARK  284  A    between atoms: _696  and  _697
REMARK  285  A    between atoms: _700  and  _702
REMARK  286  A    between atoms: _702  and  _703
REMARK  287  A    between atoms: _705  and  _707
REMARK  288  A    between atoms: _707  and  _708
REMARK  289  A    between atoms: _707  and  _710
REMARK  290  A    between atoms: _710  and  _711
REMARK  291  A    between atoms: _714  and  _716
REMARK  292  A    between atoms: _716  and  _717
REMARK  293  A    between atoms: _716  and  _719
REMARK  294  A    between atoms: _722  and  _724
REMARK  295  A    between atoms: _724  and  _725
REMARK  296  A    between atoms: _724  and  _727
REMARK  297  A    between atoms: _727  and  _728
REMARK  298  A    between atoms: _728  and  _729
REMARK  299  A    between atoms: _731  and  _733
REMARK  300  A    between atoms: _733  and  _734
REMARK  301  A    between atoms: _736  and  _738
REMARK  302  A    between atoms: _738  and  _739
REMARK  303  A    between atoms: _742  and  _744
REMARK  304  A    between atoms: _744  and  _745
REMARK  305  A    between atoms: _744  and  _747
REMARK  306  A    between atoms: _750  and  _752
REMARK  307  A    between atoms: _752  and  _753
REMARK  308  A    between atoms: _752  and  _755
REMARK  309  A    between atoms: _755  and  _756
REMARK  310  A    between atoms: _756  and  _757
REMARK                            x       y       z     vdW  Elec       q    Type
REMARK                         _______ _______ _______ _____ _____    ______ ____
ROOT
ATOM      1  CA  THR A   7       1.696  15.034  26.237  0.00  0.00    +0.176 C 
ENDROOT
BRANCH   1   2
ATOM      2  C   THR A   7       2.314  13.661  26.041  0.00  0.00    +0.243 C 
ATOM      3  N   ASN A   8       3.179  13.282  26.982  0.00  0.00    -0.297 N 
ATOM      4  H   ASN A   8       3.171  13.770  27.901  0.00  0.00    +0.150 HD
ATOM      5  O   THR A   7       1.999  12.964  25.081  0.00  0.00    -0.273 OA
BRANCH   3   6
ATOM      6  CA  ASN A   8       4.129  12.213  26.764  0.00  0.00    +0.158 C 
BRANCH   6   7
ATOM      7  C   ASN A   8       3.639  10.804  27.126  0.00  0.00    +0.241 C 
ATOM      8  O   ASN A   8       2.641  10.642  27.799  0.00  0.00    -0.273 OA
ATOM      9  N   LEU A   9       4.402   9.810  26.677  0.00  0.00    -0.297 N 
ATOM     10  H   LEU A   9       4.966   9.967  25.818  0.00  0.00    +0.150 HD
BRANCH   9  11
ATOM     11  CA  LEU A   9       4.483   8.518  27.331  0.00  0.00    +0.149 C 
BRANCH  11  12
ATOM     12  C   LEU A   9       5.417   8.682  28.515  0.00  0.00    +0.241 C 
ATOM     13  N   ARG A  10       4.906   8.607  29.740  0.00  0.00    -0.297 N 
ATOM     14  H   ARG A  10       3.892   8.420  29.873  0.00  0.00    +0.150 HD
ATOM     15  O   LEU A   9       6.576   8.911  28.336  0.00  0.00    -0.273 OA
BRANCH  13  16
ATOM     16  CA  ARG A  10       5.781   8.789  30.902  0.00  0.00    +0.149 C 
BRANCH  16  17
ATOM     17  C   ARG A  10       5.994   7.474  31.592  0.00  0.00    +0.241 C 
ATOM     18  N   LEU A  11       7.253   7.152  31.929  0.00  0.00    -0.298 N 
ATOM     19  H   LEU A  11       7.990   7.883  31.861  0.00  0.00    +0.150 HD
ATOM     20  O   ARG A  10       5.038   6.760  31.809  0.00  0.00    -0.273 OA
BRANCH  18  21
ATOM     21  CA  LEU A  11       7.631   5.813  32.389  0.00  0.00    +0.137 C 
BRANCH  21  22
ATOM     22  C   LEU A  11       8.389   5.854  33.694  0.00  0.00    +0.227 C 
ATOM     23  O   LEU A  11       9.204   6.738  33.892  0.00  0.00    -0.286 OA
ENDBRANCH  21  22
BRANCH  21  24
ATOM     24  CB  LEU A  11       8.501   5.080  31.334  0.00  0.00    +0.028 C 
BRANCH  24  25
ATOM     25  CG  LEU A  11       7.901   4.844  29.931  0.00  0.00    +0.002 C 
ATOM     26  CD2 LEU A  11       6.718   3.867  30.014  0.00  0.00    +0.000 C 
ATOM     27  CD1 LEU A  11       8.963   4.293  28.987  0.00  0.00    +0.000 C 
ENDBRANCH  24  25
ENDBRANCH  21  24
ENDBRANCH  18  21
ENDBRANCH  16  17
BRANCH  16  28
ATOM     28  CB  ARG A  10       5.205   9.825  31.882  0.00  0.00    +0.033 C 
BRANCH  28  29
ATOM     29  CG  ARG A  10       4.847  11.209  31.244  0.00  0.00    +0.045 C 
BRANCH  29  30
ATOM     30  CD  ARG A  10       4.332  12.194  32.388  0.00  0.00    +0.174 C 
BRANCH  30  31
ATOM     31  NE  ARG A  10       5.457  12.461  33.305  0.00  0.00    -0.265 N 
ATOM     32  CZ  ARG A  10       5.388  12.545  34.636  0.00  0.00    +0.342 C 
ATOM     33  NH2 ARG A  10       6.490  12.750  35.339  0.00  0.00    -0.292 N 
ATOM     34 HH21 ARG A  10       6.441  12.816  36.376  0.00  0.00    +0.255 HD
ATOM     35 HH22 ARG A  10       7.406  12.845  34.855  0.00  0.00    +0.255 HD
ATOM     36  NH1 ARG A  10       4.250  12.372  35.279  0.00  0.00    -0.292 N 
ATOM     37 HH11 ARG A  10       4.223  12.443  36.316  0.00  0.00    +0.255 HD
ATOM     38 HH12 ARG A  10       3.380  12.165  34.749  0.00  0.00    +0.255 HD
ATOM     39  HE  ARG A  10       6.393  12.597  32.873  0.00  0.00    +0.259 HD
ENDBRANCH  30  31
ENDBRANCH  29  30
ENDBRANCH  28  29
ENDBRANCH  16  28
ENDBRANCH  13  16
ENDBRANCH  11  12
BRANCH  11  40
ATOM     40  CB  LEU A   9       4.965   7.408  26.362  0.00  0.00    +0.029 C 
BRANCH  40  41
ATOM     41  CG  LEU A   9       5.164   6.023  27.014  0.00  0.00    +0.002 C 
ATOM     42  CD2 LEU A   9       3.912   5.521  27.821  0.00  0.00    +0.000 C 
ATOM     43  CD1 LEU A   9       5.607   5.000  25.969  0.00  0.00    +0.000 C 
ENDBRANCH  40  41
ENDBRANCH  11  40
ENDBRANCH   9  11
ENDBRANCH   6   7
BRANCH   6  44
ATOM     44  CB  ASN A   8       5.375  12.498  27.582  0.00  0.00    +0.114 C 
BRANCH  44  45
ATOM     45  CG  ASN A   8       6.201  13.629  27.004  0.00  0.00    +0.222 C 
ATOM     46  ND2 ASN A   8       7.373  13.863  27.593  0.00  0.00    -0.329 N 
ATOM     47 HD21 ASN A   8       7.660  13.302  28.420  0.00  0.00    +0.145 HD
ATOM     48 HD22 ASN A   8       8.000  14.607  27.226  0.00  0.00    +0.145 HD
ATOM     49  OD1 ASN A   8       5.811  14.254  26.032  0.00  0.00    -0.275 OA
ENDBRANCH  44  45
ENDBRANCH   6  44
ENDBRANCH   3   6
ENDBRANCH   1   2
BRANCH   1  51
ATOM     50  C   THR A   6       0.171  14.498  28.075  0.00  0.00    +0.243 C 
ATOM     51  N   THR A   7       1.211  15.196  27.626  0.00  0.00    -0.295 N 
ATOM     52  H   THR A   7       1.691  15.866  28.261  0.00  0.00    +0.150 HD
ATOM     53  O   THR A   6      -0.431  13.692  27.386  0.00  0.00    -0.273 OA
BRANCH  50  54
ATOM     54  CA  THR A   6      -0.326  14.768  29.501  0.00  0.00    +0.176 C 
BRANCH  54  57
ATOM     55  C   GLY A   5      -2.444  15.948  29.679  0.00  0.00    +0.243 C 
ATOM     56  O   GLY A   5      -1.885  17.023  29.874  0.00  0.00    -0.273 OA
ATOM     57  N   THR A   6      -1.765  14.831  29.465  0.00  0.00    -0.295 N 
ATOM     58  H   THR A   6      -2.295  13.960  29.262  0.00  0.00    +0.150 HD
BRANCH  55  59
ATOM     59  CA  GLY A   5      -3.954  15.868  29.617  0.00  0.00    +0.176 C 
BRANCH  59  61
ATOM     60  C   SER A   4      -4.759  14.191  27.983  0.00  0.00    +0.243 C 
ATOM     61  N   GLY A   5      -4.569  14.586  29.256  0.00  0.00    -0.295 N 
ATOM     62  H   GLY A   5      -4.873  13.951  30.021  0.00  0.00    +0.150 HD
ATOM     63  O   SER A   4      -4.406  14.858  27.002  0.00  0.00    -0.273 OA
BRANCH  60  64
ATOM     64  CA  SER A   4      -5.438  12.827  27.776  0.00  0.00    +0.178 C 
BRANCH  64  66
ATOM     65  C   ASP A   3      -4.202  11.475  29.442  0.00  0.00    +0.241 C 
ATOM     66  N   SER A   4      -5.362  11.934  28.978  0.00  0.00    -0.295 N 
ATOM     67  H   SER A   4      -6.242  11.665  29.464  0.00  0.00    +0.150 HD
ATOM     68  O   ASP A   3      -3.129  11.795  28.963  0.00  0.00    -0.273 OA
BRANCH  65  69
ATOM     69  CA  ASP A   3      -4.225  10.563  30.666  0.00  0.00    +0.160 C 
BRANCH  69  72
ATOM     70  C   VAL A   2      -4.907   8.240  30.874  0.00  0.00    +0.241 C 
ATOM     71  O   VAL A   2      -5.904   8.554  31.546  0.00  0.00    -0.273 OA
ATOM     72  N   ASP A   3      -4.071   9.130  30.342  0.00  0.00    -0.297 N 
ATOM     73  H   ASP A   3      -3.313   8.818  29.702  0.00  0.00    +0.150 HD
BRANCH  70  74
ATOM     74  CA  VAL A   2      -4.543   6.792  30.691  0.00  0.00    +0.148 C 
BRANCH  74  76
ATOM     75  C   ILE A   1      -3.025   5.979  32.502  0.00  0.00    +0.238 C 
ATOM     76  N   VAL A   2      -4.251   6.236  32.033  0.00  0.00    -0.297 N 
ATOM     77  H   VAL A   2      -5.058   6.031  32.656  0.00  0.00    +0.150 HD
ATOM     78  O   ILE A   1      -2.003   6.034  31.840  0.00  0.00    -0.274 OA
BRANCH  75  79
ATOM     79  CA  ILE A   1      -2.942   5.546  33.980  0.00  0.00    +0.145 C 
BRANCH  79  80
ATOM     80  N   ILE A   1      -1.695   4.865  34.278  0.00  0.00    -0.238 NA
ATOM     81  H   ILE A   1      -0.797   5.291  33.973  0.00  0.00    +0.142 HD
ENDBRANCH  79  80
BRANCH  79  82
ATOM     82  CB  ILE A   1      -3.126   6.787  34.909  0.00  0.00    +0.025 C 
ATOM     83  CG2 ILE A   1      -2.927   6.377  36.392  0.00  0.00    +0.002 C 
BRANCH  82  84
ATOM     84  CG1 ILE A   1      -2.185   7.926  34.545  0.00  0.00    +0.002 C 
ATOM     85  CD1 ILE A   1      -2.688   9.294  35.019  0.00  0.00    +0.000 C 
ENDBRANCH  82  84
ENDBRANCH  79  82
ENDBRANCH  75  79
ENDBRANCH  74  76
BRANCH  74  86
ATOM     86  CB  VAL A   2      -5.697   6.040  29.987  0.00  0.00    +0.027 C 
ATOM     87  CG2 VAL A   2      -5.366   4.486  29.931  0.00  0.00    +0.002 C 
ATOM     88  CG1 VAL A   2      -5.941   6.609  28.565  0.00  0.00    +0.002 C 
ENDBRANCH  74  86
ENDBRANCH  70  74
ENDBRANCH  69  72
BRANCH  69  89
ATOM     89  CB  ASP A   3      -3.119  10.985  31.672  0.00  0.00    +0.143 C 
BRANCH  89  90
ATOM     90  CG  ASP A   3      -3.276  12.402  32.150  0.00  0.00    +0.367 C 
ATOM     91  OD2 ASP A   3      -2.409  12.881  32.923  0.00  0.00    -0.246 OA
ATOM     92  OD1 ASP A   3      -4.260  13.073  31.770  0.00  0.00    -0.246 OA
ENDBRANCH  89  90
ENDBRANCH  69  89
ENDBRANCH  65  69
ENDBRANCH  64  66
BRANCH  64  93
ATOM     93  CB  SER A   4      -6.879  13.035  27.348  0.00  0.00    +0.166 C 
BRANCH  93  94
ATOM     94  OG  SER A   4      -7.663  13.653  28.379  0.00  0.00    -0.380 OA
ATOM     95  H   SER A   4      -7.276  14.536  28.602  0.00  0.00    +0.211 HD
ENDBRANCH  93  94
ENDBRANCH  64  93
ENDBRANCH  60  64
ENDBRANCH  59  61
ENDBRANCH  55  59
ENDBRANCH  54  57
BRANCH  54  96
ATOM     96  CB  THR A   6       0.073  13.658  30.472  0.00  0.00    +0.137 C 
ATOM     97  CG2 THR A   6       1.511  13.199  30.274  0.00  0.00    +0.034 C 
BRANCH  96  98
ATOM     98  OG1 THR A   6      -0.125  14.141  31.821  0.00  0.00    -0.382 OA
ATOM     99  HG1 THR A   6      -1.078  14.378  31.949  0.00  0.00    +0.210 HD
ENDBRANCH  96  98
ENDBRANCH  54  96
ENDBRANCH  50  54
ENDBRANCH   1  51
BRANCH   1 100
ATOM    100  CB  THR A   7       2.782  16.048  25.839  0.00  0.00    +0.137 C 
ATOM    101  CG2 THR A   7       2.952  16.054  24.311  0.00  0.00    +0.034 C 
BRANCH 100 102
ATOM    102  OG1 THR A   7       2.331  17.357  26.146  0.00  0.00    -0.382 OA
ATOM    103  HG1 THR A   7       3.027  18.013  25.891  0.00  0.00    +0.210 HD
ENDBRANCH 100 102
ENDBRANCH   1 100
TORSDOF 43
REMARK  Name = ../refined-set-2016/3i25/3i25_pocket.pdb
REMARK  310 active torsions:
REMARK  status: ('A' for Active; 'I' for Inactive)
REMARK    1  A    between atoms: _1  and  _3
REMARK    2  A    between atoms: _3  and  _4
REMARK    3  A    between atoms: _3  and  _6
REMARK    4  A    between atoms: _6  and  _7
REMARK    5  A    between atoms: _7  and  _8
REMARK    6  A    between atoms: _8  and  _9
REMARK    7  A    between atoms: _9  and  _10
REMARK    8  A    between atoms: _14  and  _16
REMARK    9  A    between atoms: _16  and  _17
REMARK   10  A    between atoms: _16  and  _19
REMARK   11  A    between atoms: _19  and  _20
REMARK   12  A    between atoms: _22  and  _24
REMARK   13  A    between atoms: _24  and  _25
REMARK   14  A    between atoms: _27  and  _29
REMARK   15  A    between atoms: _29  and  _30
REMARK   16  A    between atoms: _29  and  _32
REMARK   17  A    between atoms: _32  and  _33
REMARK   18  A    between atoms: _33  and  _34
REMARK   19  A    between atoms: _39  and  _41
REMARK   20  A    between atoms: _41  and  _42
REMARK   21  A    between atoms: _44  and  _46
REMARK   22  A    between atoms: _46  and  _47
REMARK   23  A    between atoms: _46  and  _49
REMARK   24  A    between atoms: _49  and  _50
REMARK   25  A    between atoms: _55  and  _56
REMARK   26  A    between atoms: _58  and  _60
REMARK   27  A    between atoms: _60  and  _61
REMARK   28  A    between atoms: _60  and  _63
REMARK   29  A    between atoms: _63  and  _64
REMARK   30  A    between atoms: _67  and  _69
REMARK   31  A    between atoms: _69  and  _70
REMARK   32  A    between atoms: _69  and  _72
REMARK   33  A    between atoms: _75  and  _77
REMARK   34  A    between atoms: _77  and  _78
REMARK   35  A    between atoms: _77  and  _80
REMARK   36  A    between atoms: _80  and  _81
REMARK   37  A    between atoms: _84  and  _86
REMARK   38  A    between atoms: _86  and  _87
REMARK   39  A    between atoms: _86  and  _89
REMARK   40  A    between atoms: _89  and  _90
REMARK   41  A    between atoms: _93  and  _95
REMARK   42  A    between atoms: _95  and  _96
REMARK   43  A    between atoms: _98  and  _100
REMARK   44  A    between atoms: _100  and  _101
REMARK   45  A    between atoms: _100  and  _103
REMARK   46  A    between atoms: _103  and  _104
REMARK   47  A    between atoms: _106  and  _108
REMARK   48  A    between atoms: _108  and  _109
REMARK   49  A    between atoms: _108  and  _111
REMARK   50  A    between atoms: _111  and  _112
REMARK   51  A    between atoms: _114  and  _116
REMARK   52  A    between atoms: _116  and  _117
REMARK   53  A    between atoms: _116  and  _119
REMARK   54  A    between atoms: _119  and  _120
REMARK   55  A    between atoms: _125  and  _127
REMARK   56  A    between atoms: _127  and  _128
REMARK   57  A    between atoms: _127  and  _130
REMARK   58  A    between atoms: _130  and  _131
REMARK   59  A    between atoms: _136  and  _137
REMARK   60  A    between atoms: _139  and  _141
REMARK   61  A    between atoms: _141  and  _142
REMARK   62  A    between atoms: _141  and  _144
REMARK   63  A    between atoms: _148  and  _149
REMARK   64  A    between atoms: _154  and  _156
REMARK   65  A    between atoms: _156  and  _157
REMARK   66  A    between atoms: _156  and  _159
REMARK   67  A    between atoms: _159  and  _160
REMARK   68  A    between atoms: _165  and  _166
REMARK   69  A    between atoms: _168  and  _170
REMARK   70  A    between atoms: _170  and  _171
REMARK   71  A    between atoms: _170  and  _173
REMARK   72  A    between atoms: _173  and  _174
REMARK   73  A    between atoms: _177  and  _179
REMARK   74  A    between atoms: _179  and  _180
REMARK   75  A    between atoms: _179  and  _182
REMARK   76  A    between atoms: _182  and  _183
REMARK   77  A    between atoms: _183  and  _184
REMARK   78  A    between atoms: _189  and  _191
REMARK   79  A    between atoms: _191  and  _192
REMARK   80  A    between atoms: _194  and  _196
REMARK   81  A    between atoms: _196  and  _197
REMARK   82  A    between atoms: _196  and  _199
REMARK   83  A    between atoms: _199  and  _200
REMARK   84  A    between atoms: _200  and  _201
REMARK   85  A    between atoms: _201  and  _202
REMARK   86  A    between atoms: _202  and  _203
REMARK   87  A    between atoms: _207  and  _209
REMARK   88  A    between atoms: _209  and  _210
REMARK   89  A    between atoms: _209  and  _212
REMARK   90  A    between atoms: _212  and  _213
REMARK   91  A    between atoms: _223  and  _225
REMARK   92  A    between atoms: _225  and  _226
REMARK   93  A    between atoms: _225  and  _228
REMARK   94  A    between atoms: _228  and  _229
REMARK   95  A    between atoms: _232  and  _234
REMARK   96  A    between atoms: _234  and  _235
REMARK   97  A    between atoms: _234  and  _237
REMARK   98  A    between atoms: _237  and  _238
REMARK   99  A    between atoms: _238  and  _239
REMARK  100  A    between atoms: _239  and  _240
REMARK  101  A    between atoms: _240  and  _241
REMARK  102  A    between atoms: _245  and  _247
REMARK  103  A    between atoms: _247  and  _248
REMARK  104  A    between atoms: _247  and  _250
REMARK  105  A    between atoms: _250  and  _251
REMARK  106  A    between atoms: _257  and  _259
REMARK  107  A    between atoms: _259  and  _260
REMARK  108  A    between atoms: _259  and  _262
REMARK  109  A    between atoms: _262  and  _263
REMARK  110  A    between atoms: _269  and  _271
REMARK  111  A    between atoms: _271  and  _272
REMARK  112  A    between atoms: _271  and  _274
REMARK  113  A    between atoms: _274  and  _275
REMARK  114  A    between atoms: _278  and  _280
REMARK  115  A    between atoms: _280  and  _281
REMARK  116  A    between atoms: _280  and  _283
REMARK  117  A    between atoms: _283  and  _284
REMARK  118  A    between atoms: _289  and  _291
REMARK  119  A    between atoms: _291  and  _292
REMARK  120  A    between atoms: _291  and  _294
REMARK  121  A    between atoms: _294  and  _295
REMARK  122  A    between atoms: _297  and  _299
REMARK  123  A    between atoms: _299  and  _300
REMARK  124  A    between atoms: _299  and  _302
REMARK  125  A    between atoms: _302  and  _303
REMARK  126  A    between atoms: _313  and  _315
REMARK  127  A    between atoms: _315  and  _316
REMARK  128  A    between atoms: _318  and  _320
REMARK  129  A    between atoms: _320  and  _321
REMARK  130  A    between atoms: _320  and  _323
REMARK  131  A    between atoms: _323  and  _324
REMARK  132  A    between atoms: _327  and  _329
REMARK  133  A    between atoms: _329  and  _330
REMARK  134  A    between atoms: _329  and  _332
REMARK  135  A    between atoms: _332  and  _333
REMARK  136  A    between atoms: _336  and  _338
REMARK  137  A    between atoms: _338  and  _339
REMARK  138  A    between atoms: _341  and  _343
REMARK  139  A    between atoms: _343  and  _344
REMARK  140  A    between atoms: _343  and  _346
REMARK  141  A    between atoms: _346  and  _347
REMARK  142  A    between atoms: _350  and  _352
REMARK  143  A    between atoms: _352  and  _353
REMARK  144  A    between atoms: _356  and  _358
REMARK  145  A    between atoms: _358  and  _359
REMARK  146  A    between atoms: _358  and  _361
REMARK  147  A    between atoms: _361  and  _362
REMARK  148  A    between atoms: _367  and  _368
REMARK  149  A    between atoms: _370  and  _372
REMARK  150  A    between atoms: _372  and  _373
REMARK  151  A    between atoms: _372  and  _375
REMARK  152  A    between atoms: _375  and  _376
REMARK  153  A    between atoms: _376  and  _377
REMARK  154  A    between atoms: _380  and  _382
REMARK  155  A    between atoms: _382  and  _383
REMARK  156  A    between atoms: _382  and  _385
REMARK  157  A    between atoms: _385  and  _386
REMARK  158  A    between atoms: _389  and  _391
REMARK  159  A    between atoms: _391  and  _392
REMARK  160  A    between atoms: _395  and  _397
REMARK  161  A    between atoms: _397  and  _398
REMARK  162  A    between atoms: _397  and  _400
REMARK  163  A    between atoms: _400  and  _401
REMARK  164  A    between atoms: _401  and  _402
REMARK  165  A    between atoms: _402  and  _403
REMARK  166  A    between atoms: _412  and  _414
REMARK  167  A    between atoms: _414  and  _415
REMARK  168  A    between atoms: _414  and  _417
REMARK  169  A    between atoms: _417  and  _418
REMARK  170  A    between atoms: _421  and  _423
REMARK  171  A    between atoms: _423  and  _424
REMARK  172  A    between atoms: _423  and  _426
REMARK  173  A    between atoms: _429  and  _431
REMARK  174  A    between atoms: _431  and  _432
REMARK  175  A    between atoms: _431  and  _434
REMARK  176  A    between atoms: _434  and  _435
REMARK  177  A    between atoms: _445  and  _447
REMARK  178  A    between atoms: _447  and  _448
REMARK  179  A    between atoms: _447  and  _450
REMARK  180  A    between atoms: _450  and  _451
REMARK  181  A    between atoms: _456  and  _457
REMARK  182  A    between atoms: _459  and  _461
REMARK  183  A    between atoms: _461  and  _462
REMARK  184  A    between atoms: _461  and  _464
REMARK  185  A    between atoms: _464  and  _465
REMARK  186  A    between atoms: _470  and  _471
REMARK  187  A    between atoms: _473  and  _475
REMARK  188  A    between atoms: _475  and  _476
REMARK  189  A    between atoms: _475  and  _478
REMARK  190  A    between atoms: _478  and  _479
REMARK  191  A    between atoms: _482  and  _484
REMARK  192  A    between atoms: _484  and  _485
REMARK  193  A    between atoms: _484  and  _487
REMARK  194  A    between atoms: _487  and  _488
REMARK  195  A    between atoms: _488  and  _489
REMARK  196  A    between atoms: _489  and  _490
REMARK  197  A    between atoms: _490  and  _491
REMARK  198  A    between atoms: _495  and  _497
REMARK  199  A    between atoms: _497  and  _498
REMARK  200  A    between atoms: _497  and  _500
REMARK  201  A    between atoms: _500  and  _501
REMARK  202  A    between atoms: _504  and  _506
REMARK  203  A    between atoms: _506  and  _507
REMARK  204  A    between atoms: _506  and  _509
REMARK  205  A    between atoms: _512  and  _514
REMARK  206  A    between atoms: _514  and  _515
REMARK  207  A    between atoms: _514  and  _517
REMARK  208  A    between atoms: _517  and  _518
REMARK  209  A    between atoms: _521  and  _523
REMARK  210  A    between atoms: _523  and  _524
REMARK  211  A    between atoms: _523  and  _526
REMARK  212  A    between atoms: _526  and  _527
REMARK  213  A    between atoms: _529  and  _531
REMARK  214  A    between atoms: _531  and  _532
REMARK  215  A    between atoms: _534  and  _536
REMARK  216  A    between atoms: _536  and  _537
REMARK  217  A    between atoms: _536  and  _539
REMARK  218  A    between atoms: _539  and  _540
REMARK  219  A    between atoms: _543  and  _545
REMARK  220  A    between atoms: _545  and  _546
REMARK  221  A    between atoms: _545  and  _548
REMARK  222  A    between atoms: _548  and  _549
REMARK  223  A    between atoms: _552  and  _554
REMARK  224  A    between atoms: _554  and  _555
REMARK  225  A    between atoms: _554  and  _557
REMARK  226  A    between atoms: _557  and  _558
REMARK  227  A    between atoms: _563  and  _565
REMARK  228  A    between atoms: _565  and  _566
REMARK  229  A    between atoms: _565  and  _568
REMARK  230  A    between atoms: _568  and  _569
REMARK  231  A    between atoms: _572  and  _574
REMARK  232  A    between atoms: _574  and  _575
REMARK  233  A    between atoms: _574  and  _577
REMARK  234  A    between atoms: _577  and  _578
REMARK  235  A    between atoms: _578  and  _579
REMARK  236  A    between atoms: _579  and  _580
REMARK  237  A    between atoms: _589  and  _591
REMARK  238  A    between atoms: _591  and  _592
REMARK  239  A    between atoms: _591  and  _594
REMARK  240  A    between atoms: _594  and  _595
REMARK  241  A    between atoms: _598  and  _600
REMARK  242  A    between atoms: _600  and  _601
REMARK  243  A    between atoms: _600  and  _603
REMARK  244  A    between atoms: _603  and  _604
REMARK  245  A    between atoms: _604  and  _605
REMARK  246  A    between atoms: _605  and  _606
REMARK  247  A    between atoms: _615  and  _617
REMARK  248  A    between atoms: _617  and  _618
REMARK  249  A    between atoms: _617  and  _620
REMARK  250  A    between atoms: _620  and  _621
REMARK  251  A    between atoms: _621  and  _622
REMARK  252  A    between atoms: _622  and  _623
REMARK  253  A    between atoms: _623  and  _624
REMARK  254  A    between atoms: _628  and  _630
REMARK  255  A    between atoms: _630  and  _631
REMARK  256  A    between atoms: _630  and  _633
REMARK  257  A    between atoms: _633  and  _634
REMARK  258  A    between atoms: _640  and  _642
REMARK  259  A    between atoms: _642  and  _643
REMARK  260  A    between atoms: _646  and  _648
REMARK  261  A    between atoms: _648  and  _649
REMARK  262  A    between atoms: _648  and  _651
REMARK  263  A    between atoms: _651  and  _652
REMARK  264  A    between atoms: _655  and  _657
REMARK  265  A    between atoms: _657  and  _658
REMARK  266  A    between atoms: _657  and  _660
REMARK  267  A    between atoms: _660  and  _661
REMARK  268  A    between atoms: _663  and  _665
REMARK  269  A    between atoms: _665  and  _666
REMARK  270  A    between atoms: _665  and  _668
REMARK  271  A    between atoms: _668  and  _669
REMARK  272  A    between atoms: _669  and  _670
REMARK  273  A    between atoms: _675  and  _677
REMARK  274  A    between atoms: _677  and  _678
REMARK  275  A    between atoms: _677  and  _680
REMARK  276  A    between atoms: _680  and  _681
REMARK  277  A    between atoms: _683  and  _685
REMARK  278  A    between atoms: _685  and  _686
REMARK  279  A    between atoms: _685  and  _688
REMARK  280  A    between atoms: _688  and  _689
REMARK  281  A    between atoms: _691  and  _693
REMARK  282  A    between atoms: _693  and  _694
REMARK  283  A    between atoms: _693  and  _696
REMARK  284  A    between atoms: _696  and  _697
REMARK  285  A    between atoms: _700  and  _702
REMARK  286  A    between atoms: _702  and  _703
REMARK  287  A    between atoms: _705  and  _707
REMARK  288  A    between atoms: _707  and  _708
REMARK  289  A    between atoms: _707  and  _710
REMARK  290  A    between atoms: _710  and  _711
REMARK  291  A    between atoms: _714  and  _716
REMARK  292  A    between atoms: _716  and  _717
REMARK  293  A    between atoms: _716  and  _719
REMARK  294  A    between atoms: _722  and  _724
REMARK  295  A    between atoms: _724  and  _725
REMARK  296  A    between atoms: _724  and  _727
REMARK  297  A    between atoms: _727  and  _728
REMARK  298  A    between atoms: _728  and  _729
REMARK  299  A    between atoms: _731  and  _733
REMARK  300  A    between atoms: _733  and  _734
REMARK  301  A    between atoms: _736  and  _738
REMARK  302  A    between atoms: _738  and  _739
REMARK  303  A    between atoms: _742  and  _744
REMARK  304  A    between atoms: _744  and  _745
REMARK  305  A    between atoms: _744  and  _747
REMARK  306  A    between atoms: _750  and  _752
REMARK  307  A    between atoms: _752  and  _753
REMARK  308  A    between atoms: _752  and  _755
REMARK  309  A    between atoms: _755  and  _756
REMARK  310  A    between atoms: _756  and  _757
REMARK                            x       y       z     vdW  Elec       q    Type
REMARK                         _______ _______ _______ _____ _____    ______ ____
ROOT
ATOM      1  NE  ARG A   1       2.954  14.275  20.917  0.00  0.00    -0.265 N 
ATOM      2  CZ  ARG A   1       2.106  15.302  20.978  0.00  0.00    +0.342 C 
ATOM      3  NH2 ARG A   1       2.544  16.548  21.213  0.00  0.00    -0.292 N 
ATOM      4 HH21 ARG A   1       3.560  16.725  21.351  0.00  0.00    +0.255 HD
ATOM      5 HH22 ARG A   1       1.868  17.337  21.257  0.00  0.00    +0.255 HD
ATOM      6  NH1 ARG A   1       0.813  15.080  20.810  0.00  0.00    -0.292 N 
ATOM      7 HH11 ARG A   1       0.139  15.871  20.855  0.00  0.00    +0.255 HD
ATOM      8 HH12 ARG A   1       0.470  14.114  20.633  0.00  0.00    +0.255 HD
ATOM      9  HE  ARG A   1       2.560  13.334  20.714  0.00  0.00    +0.259 HD
ENDROOT
BRANCH   1  10
ATOM     10  CD  ARG A   1       4.399  14.377  21.115  0.00  0.00    +0.174 C 
BRANCH  10  11
ATOM     11  CG  ARG A   1       5.176  14.083  19.861  0.00  0.00    +0.045 C 
BRANCH  11  12
ATOM     12  CB  ARG A   1       6.038  15.277  19.422  0.00  0.00    +0.029 C 
BRANCH  12  13
ATOM     13  CA  ARG A   1       6.737  14.949  18.112  0.00  0.00    +0.133 C 
BRANCH  13  14
ATOM     14  N   ARG A   1       7.794  13.968  18.339  0.00  0.00    -0.239 NA
ATOM     15  H   ARG A   1       8.427  14.066  19.158  0.00  0.00    +0.142 HD
ENDBRANCH  13  14
BRANCH  13  16
ATOM     16  C   ARG A   1       7.312  16.181  17.447  0.00  0.00    +0.224 C 
ATOM     17  O   ARG A   1       8.297  16.721  17.943  0.00  0.00    -0.287 OA
ENDBRANCH  13  16
ENDBRANCH  12  13
ENDBRANCH  11  12
ENDBRANCH  10  11
ENDBRANCH   1  10
TORSDOF 6
REMARK  Name = ../refined-set-2016/3i25/3i25_pocket.pdb
REMARK  310 active torsions:
REMARK  status: ('A' for Active; 'I' for Inactive)
REMARK    1  A    between atoms: _1  and  _3
REMARK    2  A    between atoms: _3  and  _4
REMARK    3  A    between atoms: _3  and  _6
REMARK    4  A    between atoms: _6  and  _7
REMARK    5  A    between atoms: _7  and  _8
REMARK    6  A    between atoms: _8  and  _9
REMARK    7  A    between atoms: _9  and  _10
REMARK    8  A    between atoms: _14  and  _16
REMARK    9  A    between atoms: _16  and  _17
REMARK   10  A    between atoms: _16  and  _19
REMARK   11  A    between atoms: _19  and  _20
REMARK   12  A    between atoms: _22  and  _24
REMARK   13  A    between atoms: _24  and  _25
REMARK   14  A    between atoms: _27  and  _29
REMARK   15  A    between atoms: _29  and  _30
REMARK   16  A    between atoms: _29  and  _32
REMARK   17  A    between atoms: _32  and  _33
REMARK   18  A    between atoms: _33  and  _34
REMARK   19  A    between atoms: _39  and  _41
REMARK   20  A    between atoms: _41  and  _42
REMARK   21  A    between atoms: _44  and  _46
REMARK   22  A    between atoms: _46  and  _47
REMARK   23  A    between atoms: _46  and  _49
REMARK   24  A    between atoms: _49  and  _50
REMARK   25  A    between atoms: _55  and  _56
REMARK   26  A    between atoms: _58  and  _60
REMARK   27  A    between atoms: _60  and  _61
REMARK   28  A    between atoms: _60  and  _63
REMARK   29  A    between atoms: _63  and  _64
REMARK   30  A    between atoms: _67  and  _69
REMARK   31  A    between atoms: _69  and  _70
REMARK   32  A    between atoms: _69  and  _72
REMARK   33  A    between atoms: _75  and  _77
REMARK   34  A    between atoms: _77  and  _78
REMARK   35  A    between atoms: _77  and  _80
REMARK   36  A    between atoms: _80  and  _81
REMARK   37  A    between atoms: _84  and  _86
REMARK   38  A    between atoms: _86  and  _87
REMARK   39  A    between atoms: _86  and  _89
REMARK   40  A    between atoms: _89  and  _90
REMARK   41  A    between atoms: _93  and  _95
REMARK   42  A    between atoms: _95  and  _96
REMARK   43  A    between atoms: _98  and  _100
REMARK   44  A    between atoms: _100  and  _101
REMARK   45  A    between atoms: _100  and  _103
REMARK   46  A    between atoms: _103  and  _104
REMARK   47  A    between atoms: _106  and  _108
REMARK   48  A    between atoms: _108  and  _109
REMARK   49  A    between atoms: _108  and  _111
REMARK   50  A    between atoms: _111  and  _112
REMARK   51  A    between atoms: _114  and  _116
REMARK   52  A    between atoms: _116  and  _117
REMARK   53  A    between atoms: _116  and  _119
REMARK   54  A    between atoms: _119  and  _120
REMARK   55  A    between atoms: _125  and  _127
REMARK   56  A    between atoms: _127  and  _128
REMARK   57  A    between atoms: _127  and  _130
REMARK   58  A    between atoms: _130  and  _131
REMARK   59  A    between atoms: _136  and  _137
REMARK   60  A    between atoms: _139  and  _141
REMARK   61  A    between atoms: _141  and  _142
REMARK   62  A    between atoms: _141  and  _144
REMARK   63  A    between atoms: _148  and  _149
REMARK   64  A    between atoms: _154  and  _156
REMARK   65  A    between atoms: _156  and  _157
REMARK   66  A    between atoms: _156  and  _159
REMARK   67  A    between atoms: _159  and  _160
REMARK   68  A    between atoms: _165  and  _166
REMARK   69  A    between atoms: _168  and  _170
REMARK   70  A    between atoms: _170  and  _171
REMARK   71  A    between atoms: _170  and  _173
REMARK   72  A    between atoms: _173  and  _174
REMARK   73  A    between atoms: _177  and  _179
REMARK   74  A    between atoms: _179  and  _180
REMARK   75  A    between atoms: _179  and  _182
REMARK   76  A    between atoms: _182  and  _183
REMARK   77  A    between atoms: _183  and  _184
REMARK   78  A    between atoms: _189  and  _191
REMARK   79  A    between atoms: _191  and  _192
REMARK   80  A    between atoms: _194  and  _196
REMARK   81  A    between atoms: _196  and  _197
REMARK   82  A    between atoms: _196  and  _199
REMARK   83  A    between atoms: _199  and  _200
REMARK   84  A    between atoms: _200  and  _201
REMARK   85  A    between atoms: _201  and  _202
REMARK   86  A    between atoms: _202  and  _203
REMARK   87  A    between atoms: _207  and  _209
REMARK   88  A    between atoms: _209  and  _210
REMARK   89  A    between atoms: _209  and  _212
REMARK   90  A    between atoms: _212  and  _213
REMARK   91  A    between atoms: _223  and  _225
REMARK   92  A    between atoms: _225  and  _226
REMARK   93  A    between atoms: _225  and  _228
REMARK   94  A    between atoms: _228  and  _229
REMARK   95  A    between atoms: _232  and  _234
REMARK   96  A    between atoms: _234  and  _235
REMARK   97  A    between atoms: _234  and  _237
REMARK   98  A    between atoms: _237  and  _238
REMARK   99  A    between atoms: _238  and  _239
REMARK  100  A    between atoms: _239  and  _240
REMARK  101  A    between atoms: _240  and  _241
REMARK  102  A    between atoms: _245  and  _247
REMARK  103  A    between atoms: _247  and  _248
REMARK  104  A    between atoms: _247  and  _250
REMARK  105  A    between atoms: _250  and  _251
REMARK  106  A    between atoms: _257  and  _259
REMARK  107  A    between atoms: _259  and  _260
REMARK  108  A    between atoms: _259  and  _262
REMARK  109  A    between atoms: _262  and  _263
REMARK  110  A    between atoms: _269  and  _271
REMARK  111  A    between atoms: _271  and  _272
REMARK  112  A    between atoms: _271  and  _274
REMARK  113  A    between atoms: _274  and  _275
REMARK  114  A    between atoms: _278  and  _280
REMARK  115  A    between atoms: _280  and  _281
REMARK  116  A    between atoms: _280  and  _283
REMARK  117  A    between atoms: _283  and  _284
REMARK  118  A    between atoms: _289  and  _291
REMARK  119  A    between atoms: _291  and  _292
REMARK  120  A    between atoms: _291  and  _294
REMARK  121  A    between atoms: _294  and  _295
REMARK  122  A    between atoms: _297  and  _299
REMARK  123  A    between atoms: _299  and  _300
REMARK  124  A    between atoms: _299  and  _302
REMARK  125  A    between atoms: _302  and  _303
REMARK  126  A    between atoms: _313  and  _315
REMARK  127  A    between atoms: _315  and  _316
REMARK  128  A    between atoms: _318  and  _320
REMARK  129  A    between atoms: _320  and  _321
REMARK  130  A    between atoms: _320  and  _323
REMARK  131  A    between atoms: _323  and  _324
REMARK  132  A    between atoms: _327  and  _329
REMARK  133  A    between atoms: _329  and  _330
REMARK  134  A    between atoms: _329  and  _332
REMARK  135  A    between atoms: _332  and  _333
REMARK  136  A    between atoms: _336  and  _338
REMARK  137  A    between atoms: _338  and  _339
REMARK  138  A    between atoms: _341  and  _343
REMARK  139  A    between atoms: _343  and  _344
REMARK  140  A    between atoms: _343  and  _346
REMARK  141  A    between atoms: _346  and  _347
REMARK  142  A    between atoms: _350  and  _352
REMARK  143  A    between atoms: _352  and  _353
REMARK  144  A    between atoms: _356  and  _358
REMARK  145  A    between atoms: _358  and  _359
REMARK  146  A    between atoms: _358  and  _361
REMARK  147  A    between atoms: _361  and  _362
REMARK  148  A    between atoms: _367  and  _368
REMARK  149  A    between atoms: _370  and  _372
REMARK  150  A    between atoms: _372  and  _373
REMARK  151  A    between atoms: _372  and  _375
REMARK  152  A    between atoms: _375  and  _376
REMARK  153  A    between atoms: _376  and  _377
REMARK  154  A    between atoms: _380  and  _382
REMARK  155  A    between atoms: _382  and  _383
REMARK  156  A    between atoms: _382  and  _385
REMARK  157  A    between atoms: _385  and  _386
REMARK  158  A    between atoms: _389  and  _391
REMARK  159  A    between atoms: _391  and  _392
REMARK  160  A    between atoms: _395  and  _397
REMARK  161  A    between atoms: _397  and  _398
REMARK  162  A    between atoms: _397  and  _400
REMARK  163  A    between atoms: _400  and  _401
REMARK  164  A    between atoms: _401  and  _402
REMARK  165  A    between atoms: _402  and  _403
REMARK  166  A    between atoms: _412  and  _414
REMARK  167  A    between atoms: _414  and  _415
REMARK  168  A    between atoms: _414  and  _417
REMARK  169  A    between atoms: _417  and  _418
REMARK  170  A    between atoms: _421  and  _423
REMARK  171  A    between atoms: _423  and  _424
REMARK  172  A    between atoms: _423  and  _426
REMARK  173  A    between atoms: _429  and  _431
REMARK  174  A    between atoms: _431  and  _432
REMARK  175  A    between atoms: _431  and  _434
REMARK  176  A    between atoms: _434  and  _435
REMARK  177  A    between atoms: _445  and  _447
REMARK  178  A    between atoms: _447  and  _448
REMARK  179  A    between atoms: _447  and  _450
REMARK  180  A    between atoms: _450  and  _451
REMARK  181  A    between atoms: _456  and  _457
REMARK  182  A    between atoms: _459  and  _461
REMARK  183  A    between atoms: _461  and  _462
REMARK  184  A    between atoms: _461  and  _464
REMARK  185  A    between atoms: _464  and  _465
REMARK  186  A    between atoms: _470  and  _471
REMARK  187  A    between atoms: _473  and  _475
REMARK  188  A    between atoms: _475  and  _476
REMARK  189  A    between atoms: _475  and  _478
REMARK  190  A    between atoms: _478  and  _479
REMARK  191  A    between atoms: _482  and  _484
REMARK  192  A    between atoms: _484  and  _485
REMARK  193  A    between atoms: _484  and  _487
REMARK  194  A    between atoms: _487  and  _488
REMARK  195  A    between atoms: _488  and  _489
REMARK  196  A    between atoms: _489  and  _490
REMARK  197  A    between atoms: _490  and  _491
REMARK  198  A    between atoms: _495  and  _497
REMARK  199  A    between atoms: _497  and  _498
REMARK  200  A    between atoms: _497  and  _500
REMARK  201  A    between atoms: _500  and  _501
REMARK  202  A    between atoms: _504  and  _506
REMARK  203  A    between atoms: _506  and  _507
REMARK  204  A    between atoms: _506  and  _509
REMARK  205  A    between atoms: _512  and  _514
REMARK  206  A    between atoms: _514  and  _515
REMARK  207  A    between atoms: _514  and  _517
REMARK  208  A    between atoms: _517  and  _518
REMARK  209  A    between atoms: _521  and  _523
REMARK  210  A    between atoms: _523  and  _524
REMARK  211  A    between atoms: _523  and  _526
REMARK  212  A    between atoms: _526  and  _527
REMARK  213  A    between atoms: _529  and  _531
REMARK  214  A    between atoms: _531  and  _532
REMARK  215  A    between atoms: _534  and  _536
REMARK  216  A    between atoms: _536  and  _537
REMARK  217  A    between atoms: _536  and  _539
REMARK  218  A    between atoms: _539  and  _540
REMARK  219  A    between atoms: _543  and  _545
REMARK  220  A    between atoms: _545  and  _546
REMARK  221  A    between atoms: _545  and  _548
REMARK  222  A    between atoms: _548  and  _549
REMARK  223  A    between atoms: _552  and  _554
REMARK  224  A    between atoms: _554  and  _555
REMARK  225  A    between atoms: _554  and  _557
REMARK  226  A    between atoms: _557  and  _558
REMARK  227  A    between atoms: _563  and  _565
REMARK  228  A    between atoms: _565  and  _566
REMARK  229  A    between atoms: _565  and  _568
REMARK  230  A    between atoms: _568  and  _569
REMARK  231  A    between atoms: _572  and  _574
REMARK  232  A    between atoms: _574  and  _575
REMARK  233  A    between atoms: _574  and  _577
REMARK  234  A    between atoms: _577  and  _578
REMARK  235  A    between atoms: _578  and  _579
REMARK  236  A    between atoms: _579  and  _580
REMARK  237  A    between atoms: _589  and  _591
REMARK  238  A    between atoms: _591  and  _592
REMARK  239  A    between atoms: _591  and  _594
REMARK  240  A    between atoms: _594  and  _595
REMARK  241  A    between atoms: _598  and  _600
REMARK  242  A    between atoms: _600  and  _601
REMARK  243  A    between atoms: _600  and  _603
REMARK  244  A    between atoms: _603  and  _604
REMARK  245  A    between atoms: _604  and  _605
REMARK  246  A    between atoms: _605  and  _606
REMARK  247  A    between atoms: _615  and  _617
REMARK  248  A    between atoms: _617  and  _618
REMARK  249  A    between atoms: _617  and  _620
REMARK  250  A    between atoms: _620  and  _621
REMARK  251  A    between atoms: _621  and  _622
REMARK  252  A    between atoms: _622  and  _623
REMARK  253  A    between atoms: _623  and  _624
REMARK  254  A    between atoms: _628  and  _630
REMARK  255  A    between atoms: _630  and  _631
REMARK  256  A    between atoms: _630  and  _633
REMARK  257  A    between atoms: _633  and  _634
REMARK  258  A    between atoms: _640  and  _642
REMARK  259  A    between atoms: _642  and  _643
REMARK  260  A    between atoms: _646  and  _648
REMARK  261  A    between atoms: _648  and  _649
REMARK  262  A    between atoms: _648  and  _651
REMARK  263  A    between atoms: _651  and  _652
REMARK  264  A    between atoms: _655  and  _657
REMARK  265  A    between atoms: _657  and  _658
REMARK  266  A    between atoms: _657  and  _660
REMARK  267  A    between atoms: _660  and  _661
REMARK  268  A    between atoms: _663  and  _665
REMARK  269  A    between atoms: _665  and  _666
REMARK  270  A    between atoms: _665  and  _668
REMARK  271  A    between atoms: _668  and  _669
REMARK  272  A    between atoms: _669  and  _670
REMARK  273  A    between atoms: _675  and  _677
REMARK  274  A    between atoms: _677  and  _678
REMARK  275  A    between atoms: _677  and  _680
REMARK  276  A    between atoms: _680  and  _681
REMARK  277  A    between atoms: _683  and  _685
REMARK  278  A    between atoms: _685  and  _686
REMARK  279  A    between atoms: _685  and  _688
REMARK  280  A    between atoms: _688  and  _689
REMARK  281  A    between atoms: _691  and  _693
REMARK  282  A    between atoms: _693  and  _694
REMARK  283  A    between atoms: _693  and  _696
REMARK  284  A    between atoms: _696  and  _697
REMARK  285  A    between atoms: _700  and  _702
REMARK  286  A    between atoms: _702  and  _703
REMARK  287  A    between atoms: _705  and  _707
REMARK  288  A    between atoms: _707  and  _708
REMARK  289  A    between atoms: _707  and  _710
REMARK  290  A    between atoms: _710  and  _711
REMARK  291  A    between atoms: _714  and  _716
REMARK  292  A    between atoms: _716  and  _717
REMARK  293  A    between atoms: _716  and  _719
REMARK  294  A    between atoms: _722  and  _724
REMARK  295  A    between atoms: _724  and  _725
REMARK  296  A    between atoms: _724  and  _727
REMARK  297  A    between atoms: _727  and  _728
REMARK  298  A    between atoms: _728  and  _729
REMARK  299  A    between atoms: _731  and  _733
REMARK  300  A    between atoms: _733  and  _734
REMARK  301  A    between atoms: _736  and  _738
REMARK  302  A    between atoms: _738  and  _739
REMARK  303  A    between atoms: _742  and  _744
REMARK  304  A    between atoms: _744  and  _745
REMARK  305  A    between atoms: _744  and  _747
REMARK  306  A    between atoms: _750  and  _752
REMARK  307  A    between atoms: _752  and  _753
REMARK  308  A    between atoms: _752  and  _755
REMARK  309  A    between atoms: _755  and  _756
REMARK  310  A    between atoms: _756  and  _757
REMARK                            x       y       z     vdW  Elec       q    Type
REMARK                         _______ _______ _______ _____ _____    ______ ____
ROOT
ATOM      1  C   SER A   7       8.555   8.980  37.310  0.00  0.00    +0.243 C 
ATOM      2  N   SER A   8       8.262   9.675  38.415  0.00  0.00    -0.295 N 
ATOM      3  H   SER A   8       7.958  10.665  38.323  0.00  0.00    +0.150 HD
ATOM      4  O   SER A   7       9.019   7.818  37.335  0.00  0.00    -0.273 OA
ENDROOT
BRANCH   1   5
ATOM      5  CA  SER A   7       8.193   9.644  35.983  0.00  0.00    +0.178 C 
BRANCH   5   7
ATOM      6  C   GLN A   6       9.632  10.210  34.074  0.00  0.00    +0.241 C 
ATOM      7  N   SER A   7       9.212   9.333  34.977  0.00  0.00    -0.295 N 
ATOM      8  H   SER A   7       9.626   8.379  34.970  0.00  0.00    +0.150 HD
ATOM      9  O   GLN A   6       9.255  11.372  34.044  0.00  0.00    -0.273 OA
BRANCH   6  10
ATOM     10  CA  GLN A   6      10.642   9.693  33.055  0.00  0.00    +0.149 C 
BRANCH  10  12
ATOM     11  C   SER A   5       9.836  10.018  30.797  0.00  0.00    +0.243 C 
ATOM     12  N   GLN A   6      10.548  10.438  31.827  0.00  0.00    -0.297 N 
ATOM     13  H   GLN A   6      11.059  11.340  31.748  0.00  0.00    +0.150 HD
ATOM     14  O   SER A   5       9.079   9.048  30.865  0.00  0.00    -0.273 OA
BRANCH  11  15
ATOM     15  CA  SER A   5      10.020  10.793  29.491  0.00  0.00    +0.178 C 
BRANCH  15  17
ATOM     16  C   ILE A   4       9.820  10.101  27.162  0.00  0.00    +0.241 C 
ATOM     17  N   SER A   5       9.305  10.141  28.378  0.00  0.00    -0.295 N 
ATOM     18  H   SER A   5       8.378   9.704  28.554  0.00  0.00    +0.150 HD
ATOM     19  O   ILE A   4      10.959  10.529  26.895  0.00  0.00    -0.273 OA
BRANCH  16  20
ATOM     20  CA  ILE A   4       8.918   9.526  26.075  0.00  0.00    +0.149 C 
BRANCH  20  23
ATOM     21  C   ALA A   3       7.870  11.254  24.726  0.00  0.00    +0.241 C 
ATOM     22  O   ALA A   3       6.715  10.959  25.067  0.00  0.00    -0.273 OA
ATOM     23  N   ILE A   4       8.931  10.538  25.057  0.00  0.00    -0.297 N 
ATOM     24  H   ILE A   4       9.823  10.718  24.553  0.00  0.00    +0.150 HD
BRANCH  21  25
ATOM     25  CA  ALA A   3       8.192  12.494  23.871  0.00  0.00    +0.149 C 
ATOM     26  CB  ALA A   3       7.015  12.938  23.038  0.00  0.00    +0.031 C 
BRANCH  25  29
ATOM     27  C   PHE A   2      10.512  13.040  23.223  0.00  0.00    +0.241 C 
ATOM     28  O   PHE A   2      10.719  13.751  24.225  0.00  0.00    -0.273 OA
ATOM     29  N   ALA A   3       9.395  12.342  23.038  0.00  0.00    -0.297 N 
ATOM     30  H   ALA A   3       9.371  11.651  22.262  0.00  0.00    +0.150 HD
BRANCH  27  31
ATOM     31  CA  PHE A   2      11.563  12.953  22.088  0.00  0.00    +0.153 C 
BRANCH  31  33
ATOM     32  C   LYS A   1      10.910  14.887  20.728  0.00  0.00    +0.238 C 
ATOM     33  N   PHE A   2      11.773  14.299  21.558  0.00  0.00    -0.297 N 
ATOM     34  H   PHE A   2      12.629  14.819  21.839  0.00  0.00    +0.150 HD
ATOM     35  O   LYS A   1       9.936  14.301  20.269  0.00  0.00    -0.274 OA
BRANCH  32  36
ATOM     36  CA  LYS A   1      11.179  16.377  20.337  0.00  0.00    +0.145 C 
BRANCH  36  37
ATOM     37  N   LYS A   1      10.837  16.601  18.935  0.00  0.00    -0.238 NA
ATOM     38  H   LYS A   1       9.836  16.674  18.664  0.00  0.00    +0.142 HD
ENDBRANCH  36  37
BRANCH  36  39
ATOM     39  CB  LYS A   1      10.377  17.343  21.209  0.00  0.00    +0.026 C 
BRANCH  39  40
ATOM     40  CG  LYS A   1      10.734  17.295  22.676  0.00  0.00    -0.000 C 
BRANCH  40  41
ATOM     41  CD  LYS A   1       9.616  17.884  23.538  0.00  0.00    -0.024 C 
BRANCH  41  42
ATOM     42  CE  LYS A   1       9.728  17.394  24.970  0.00  0.00    -0.086 C 
BRANCH  42  43
ATOM     43  NZ  LYS A   1       9.037  18.323  25.903  0.00  0.00    +0.380 N 
ATOM     44  HZ1 LYS A   1       9.128  17.966  26.876  0.00  0.00    -0.089 HD
ATOM     45  HZ2 LYS A   1       9.471  19.266  25.836  0.00  0.00    -0.089 HD
ATOM     46  HZ3 LYS A   1       8.031  18.384  25.647  0.00  0.00    -0.089 HD
ENDBRANCH  42  43
ENDBRANCH  41  42
ENDBRANCH  40  41
ENDBRANCH  39  40
ENDBRANCH  36  39
ENDBRANCH  32  36
ENDBRANCH  31  33
BRANCH  31  47
ATOM     47  CB  PHE A   2      12.881  12.378  22.604  0.00  0.00    +0.055 C 
BRANCH  47  48
ATOM     48  CG  PHE A   2      12.809  10.926  23.016  0.00  0.00    -0.020 A 
ATOM     49  CD2 PHE A   2      13.164  10.553  24.281  0.00  0.00    -0.004 A 
ATOM     50  CE2 PHE A   2      13.148   9.203  24.671  0.00  0.00    -0.000 A 
ATOM     51  CZ  PHE A   2      12.755   8.253  23.771  0.00  0.00    -0.000 A 
ATOM     52  CE1 PHE A   2      12.388   8.610  22.479  0.00  0.00    -0.000 A 
ATOM     53  CD1 PHE A   2      12.425   9.928  22.096  0.00  0.00    -0.004 A 
ENDBRANCH  47  48
ENDBRANCH  31  47
ENDBRANCH  27  31
ENDBRANCH  25  29
ENDBRANCH  21  25
ENDBRANCH  20  23
BRANCH  20  54
ATOM     54  CB  ILE A   4       9.485   8.162  25.559  0.00  0.00    +0.027 C 
ATOM     55  CG2 ILE A   4       9.615   7.124  26.707  0.00  0.00    +0.002 C 
BRANCH  54  56
ATOM     56  CG1 ILE A   4       8.694   7.664  24.328  0.00  0.00    +0.002 C 
ATOM     57  CD1 ILE A   4       9.207   6.294  23.743  0.00  0.00    +0.000 C 
ENDBRANCH  54  56
ENDBRANCH  20  54
ENDBRANCH  16  20
ENDBRANCH  15  17
BRANCH  15  58
ATOM     58  CB  SER A   5       9.615  12.281  29.615  0.00  0.00    +0.166 C 
BRANCH  58  59
ATOM     59  OG  SER A   5       8.233  12.444  29.889  0.00  0.00    -0.380 OA
ATOM     60  H   SER A   5       8.012  11.994  30.743  0.00  0.00    +0.211 HD
ENDBRANCH  58  59
ENDBRANCH  15  58
ENDBRANCH  11  15
ENDBRANCH  10  12
BRANCH  10  61
ATOM     61  CB  GLN A   6      12.059   9.859  33.598  0.00  0.00    +0.039 C 
BRANCH  61  62
ATOM     62  CG  GLN A   6      12.498   8.793  34.562  0.00  0.00    +0.087 C 
BRANCH  62  63
ATOM     63  CD  GLN A   6      13.842   9.106  35.132  0.00  0.00    +0.219 C 
ATOM     64  OE1 GLN A   6      14.022   9.071  36.356  0.00  0.00    -0.275 OA
ATOM     65  NE2 GLN A   6      14.797   9.476  34.262  0.00  0.00    -0.329 N 
ATOM     66 HE21 GLN A   6      15.738   9.750  34.609  0.00  0.00    +0.145 HD
ATOM     67 HE22 GLN A   6      14.595   9.488  33.242  0.00  0.00    +0.145 HD
ENDBRANCH  62  63
ENDBRANCH  61  62
ENDBRANCH  10  61
ENDBRANCH   6  10
ENDBRANCH   5   7
BRANCH   5  68
ATOM     68  CB  SER A   7       6.854   9.075  35.518  0.00  0.00    +0.166 C 
BRANCH  68  69
ATOM     69  OG  SER A   7       5.819   9.313  36.463  0.00  0.00    -0.380 OA
ATOM     70  H   SER A   7       4.971   8.930  36.125  0.00  0.00    +0.211 HD
ENDBRANCH  68  69
ENDBRANCH   5  68
ENDBRANCH   1   5
BRANCH   2  71
ATOM     71  CA  SER A   8       8.357   9.080  39.751  0.00  0.00    +0.178 C 
BRANCH  71  72
ATOM     72  C   SER A   8       6.968   8.738  40.302  0.00  0.00    +0.243 C 
ATOM     73  O   SER A   8       6.821   8.398  41.482  0.00  0.00    -0.273 OA
ATOM     74  N   THR A   9       5.948   8.823  39.443  0.00  0.00    -0.295 N 
ATOM     75  H   THR A   9       6.153   9.011  38.441  0.00  0.00    +0.150 HD
BRANCH  74  76
ATOM     76  CA  THR A   9       4.543   8.660  39.861  0.00  0.00    +0.176 C 
BRANCH  76  77
ATOM     77  C   THR A   9       3.799   7.614  39.038  0.00  0.00    +0.243 C 
ATOM     78  O   THR A   9       2.549   7.583  38.992  0.00  0.00    -0.273 OA
ATOM     79  N   GLY A  10       4.566   6.695  38.460  0.00  0.00    -0.295 N 
ATOM     80  H   GLY A  10       5.598   6.750  38.577  0.00  0.00    +0.150 HD
BRANCH  79  81
ATOM     81  CA  GLY A  10       4.002   5.621  37.673  0.00  0.00    +0.176 C 
BRANCH  81  82
ATOM     82  C   GLY A  10       3.971   5.942  36.180  0.00  0.00    +0.243 C 
ATOM     83  O   GLY A  10       4.382   7.025  35.748  0.00  0.00    -0.273 OA
ATOM     84  N   THR A  11       3.475   4.992  35.401  0.00  0.00    -0.295 N 
ATOM     85  H   THR A  11       3.170   4.099  35.839  0.00  0.00    +0.150 HD
BRANCH  84  86
ATOM     86  CA  THR A  11       3.336   5.143  33.946  0.00  0.00    +0.176 C 
BRANCH  86  87
ATOM     87  C   THR A  11       2.158   6.074  33.578  0.00  0.00    +0.243 C 
ATOM     88  O   THR A  11       1.077   6.007  34.134  0.00  0.00    -0.273 OA
ATOM     89  N   VAL A  12       2.398   6.966  32.644  0.00  0.00    -0.297 N 
ATOM     90  H   VAL A  12       3.364   7.083  32.276  0.00  0.00    +0.150 HD
BRANCH  89  91
ATOM     91  CA  VAL A  12       1.341   7.776  32.131  0.00  0.00    +0.149 C 
BRANCH  91  92
ATOM     92  C   VAL A  12       1.278   7.575  30.616  0.00  0.00    +0.241 C 
ATOM     93  N   MET A  13       0.220   6.886  30.199  0.00  0.00    -0.297 N 
ATOM     94  H   MET A  13      -0.342   6.368  30.904  0.00  0.00    +0.150 HD
ATOM     95  O   VAL A  12       2.164   8.022  29.867  0.00  0.00    -0.273 OA
BRANCH  93  96
ATOM     96  CA  MET A  13      -0.197   6.820  28.785  0.00  0.00    +0.149 C 
BRANCH  96  97
ATOM     97  C   MET A  13      -0.862   8.130  28.332  0.00  0.00    +0.241 C 
ATOM     98  O   MET A  13      -2.091   8.267  28.343  0.00  0.00    -0.273 OA
ATOM     99  N   GLY A  14      -0.019   9.072  27.929  0.00  0.00    -0.295 N 
ATOM    100  H   GLY A  14       0.999   8.863  27.955  0.00  0.00    +0.150 HD
BRANCH  99 101
ATOM    101  CA  GLY A  14      -0.439  10.378  27.454  0.00  0.00    +0.176 C 
BRANCH 101 102
ATOM    102  C   GLY A  14      -0.921  10.400  26.019  0.00  0.00    +0.243 C 
ATOM    103  O   GLY A  14      -1.287   9.372  25.480  0.00  0.00    -0.273 OA
ATOM    104  N   ALA A  15      -0.993  11.593  25.430  0.00  0.00    -0.297 N 
ATOM    105  H   ALA A  15      -0.698  12.435  25.963  0.00  0.00    +0.150 HD
BRANCH 104 106
ATOM    106  CA  ALA A  15      -1.478  11.759  24.046  0.00  0.00    +0.149 C 
ATOM    107  CB  ALA A  15      -1.630  13.268  23.666  0.00  0.00    +0.031 C 
BRANCH 106 108
ATOM    108  C   ALA A  15      -0.607  10.993  23.020  0.00  0.00    +0.241 C 
ATOM    109  N   VAL A  16       0.664  10.806  23.351  0.00  0.00    -0.298 N 
ATOM    110  H   VAL A  16       1.031  11.288  24.197  0.00  0.00    +0.150 HD
ATOM    111  O   ALA A  15      -1.105  10.558  21.976  0.00  0.00    -0.273 OA
BRANCH 109 112
ATOM    112  CA  VAL A  16       1.584   9.947  22.577  0.00  0.00    +0.137 C 
BRANCH 112 113
ATOM    113  CB  VAL A  16       2.966   9.828  23.285  0.00  0.00    +0.026 C 
ATOM    114  CG2 VAL A  16       3.792  11.013  22.966  0.00  0.00    +0.002 C 
ATOM    115  CG1 VAL A  16       3.753   8.535  22.917  0.00  0.00    +0.002 C 
ENDBRANCH 112 113
BRANCH 112 116
ATOM    116  C   VAL A  16       0.968   8.570  22.291  0.00  0.00    +0.227 C 
ATOM    117  O   VAL A  16       1.059   8.049  21.169  0.00  0.00    -0.286 OA
ENDBRANCH 112 116
ENDBRANCH 109 112
ENDBRANCH 106 108
ENDBRANCH 104 106
ENDBRANCH 101 102
ENDBRANCH  99 101
ENDBRANCH  96  97
BRANCH  96 118
ATOM    118  CB  MET A  13      -1.105   5.591  28.561  0.00  0.00    +0.041 C 
BRANCH 118 119
ATOM    119  CG  MET A  13      -0.315   4.276  28.701  0.00  0.00    +0.060 C 
BRANCH 119 120
ATOM    120  SD  MET A  13      -1.328   2.762  28.846  0.00  0.00    -0.139 S 
ATOM    121  CE  MET A  13      -2.116   2.657  27.269  0.00  0.00    +0.069 C 
ENDBRANCH 119 120
ENDBRANCH 118 119
ENDBRANCH  96 118
ENDBRANCH  93  96
ENDBRANCH  91  92
BRANCH  91 122
ATOM    122  CB  VAL A  12       1.496   9.278  32.479  0.00  0.00    +0.027 C 
ATOM    123  CG2 VAL A  12       1.636   9.485  33.988  0.00  0.00    +0.002 C 
ATOM    124  CG1 VAL A  12       0.319  10.000  32.022  0.00  0.00    +0.002 C 
ENDBRANCH  91 122
ENDBRANCH  89  91
ENDBRANCH  86  87
BRANCH  86 125
ATOM    125  CB  THR A  11       3.173   3.767  33.320  0.00  0.00    +0.137 C 
ATOM    126  CG2 THR A  11       3.133   3.812  31.794  0.00  0.00    +0.034 C 
BRANCH 125 127
ATOM    127  OG1 THR A  11       4.279   2.960  33.736  0.00  0.00    -0.382 OA
ATOM    128  HG1 THR A  11       4.194   2.057  33.340  0.00  0.00    +0.210 HD
ENDBRANCH 125 127
ENDBRANCH  86 125
ENDBRANCH  84  86
ENDBRANCH  81  82
ENDBRANCH  79  81
ENDBRANCH  76  77
BRANCH  76 129
ATOM    129  CB  THR A   9       3.789  10.032  39.883  0.00  0.00    +0.137 C 
ATOM    130  CG2 THR A   9       4.344  10.945  40.992  0.00  0.00    +0.034 C 
BRANCH 129 131
ATOM    131  OG1 THR A   9       3.978  10.706  38.625  0.00  0.00    -0.382 OA
ATOM    132  HG1 THR A   9       3.500  11.573  38.641  0.00  0.00    +0.210 HD
ENDBRANCH 129 131
ENDBRANCH  76 129
ENDBRANCH  74  76
ENDBRANCH  71  72
BRANCH  71 133
ATOM    133  CB  SER A   8       9.066  10.059  40.696  0.00  0.00    +0.166 C 
BRANCH 133 134
ATOM    134  OG  SER A   8       8.351  11.312  40.724  0.00  0.00    -0.380 OA
ATOM    135  H   SER A   8       8.812  11.940  41.335  0.00  0.00    +0.211 HD
ENDBRANCH 133 134
ENDBRANCH  71 133
ENDBRANCH   2  71
TORSDOF 59
REMARK  Name = ../refined-set-2016/3i25/3i25_pocket.pdb
REMARK  310 active torsions:
REMARK  status: ('A' for Active; 'I' for Inactive)
REMARK    1  A    between atoms: _1  and  _3
REMARK    2  A    between atoms: _3  and  _4
REMARK    3  A    between atoms: _3  and  _6
REMARK    4  A    between atoms: _6  and  _7
REMARK    5  A    between atoms: _7  and  _8
REMARK    6  A    between atoms: _8  and  _9
REMARK    7  A    between atoms: _9  and  _10
REMARK    8  A    between atoms: _14  and  _16
REMARK    9  A    between atoms: _16  and  _17
REMARK   10  A    between atoms: _16  and  _19
REMARK   11  A    between atoms: _19  and  _20
REMARK   12  A    between atoms: _22  and  _24
REMARK   13  A    between atoms: _24  and  _25
REMARK   14  A    between atoms: _27  and  _29
REMARK   15  A    between atoms: _29  and  _30
REMARK   16  A    between atoms: _29  and  _32
REMARK   17  A    between atoms: _32  and  _33
REMARK   18  A    between atoms: _33  and  _34
REMARK   19  A    between atoms: _39  and  _41
REMARK   20  A    between atoms: _41  and  _42
REMARK   21  A    between atoms: _44  and  _46
REMARK   22  A    between atoms: _46  and  _47
REMARK   23  A    between atoms: _46  and  _49
REMARK   24  A    between atoms: _49  and  _50
REMARK   25  A    between atoms: _55  and  _56
REMARK   26  A    between atoms: _58  and  _60
REMARK   27  A    between atoms: _60  and  _61
REMARK   28  A    between atoms: _60  and  _63
REMARK   29  A    between atoms: _63  and  _64
REMARK   30  A    between atoms: _67  and  _69
REMARK   31  A    between atoms: _69  and  _70
REMARK   32  A    between atoms: _69  and  _72
REMARK   33  A    between atoms: _75  and  _77
REMARK   34  A    between atoms: _77  and  _78
REMARK   35  A    between atoms: _77  and  _80
REMARK   36  A    between atoms: _80  and  _81
REMARK   37  A    between atoms: _84  and  _86
REMARK   38  A    between atoms: _86  and  _87
REMARK   39  A    between atoms: _86  and  _89
REMARK   40  A    between atoms: _89  and  _90
REMARK   41  A    between atoms: _93  and  _95
REMARK   42  A    between atoms: _95  and  _96
REMARK   43  A    between atoms: _98  and  _100
REMARK   44  A    between atoms: _100  and  _101
REMARK   45  A    between atoms: _100  and  _103
REMARK   46  A    between atoms: _103  and  _104
REMARK   47  A    between atoms: _106  and  _108
REMARK   48  A    between atoms: _108  and  _109
REMARK   49  A    between atoms: _108  and  _111
REMARK   50  A    between atoms: _111  and  _112
REMARK   51  A    between atoms: _114  and  _116
REMARK   52  A    between atoms: _116  and  _117
REMARK   53  A    between atoms: _116  and  _119
REMARK   54  A    between atoms: _119  and  _120
REMARK   55  A    between atoms: _125  and  _127
REMARK   56  A    between atoms: _127  and  _128
REMARK   57  A    between atoms: _127  and  _130
REMARK   58  A    between atoms: _130  and  _131
REMARK   59  A    between atoms: _136  and  _137
REMARK   60  A    between atoms: _139  and  _141
REMARK   61  A    between atoms: _141  and  _142
REMARK   62  A    between atoms: _141  and  _144
REMARK   63  A    between atoms: _148  and  _149
REMARK   64  A    between atoms: _154  and  _156
REMARK   65  A    between atoms: _156  and  _157
REMARK   66  A    between atoms: _156  and  _159
REMARK   67  A    between atoms: _159  and  _160
REMARK   68  A    between atoms: _165  and  _166
REMARK   69  A    between atoms: _168  and  _170
REMARK   70  A    between atoms: _170  and  _171
REMARK   71  A    between atoms: _170  and  _173
REMARK   72  A    between atoms: _173  and  _174
REMARK   73  A    between atoms: _177  and  _179
REMARK   74  A    between atoms: _179  and  _180
REMARK   75  A    between atoms: _179  and  _182
REMARK   76  A    between atoms: _182  and  _183
REMARK   77  A    between atoms: _183  and  _184
REMARK   78  A    between atoms: _189  and  _191
REMARK   79  A    between atoms: _191  and  _192
REMARK   80  A    between atoms: _194  and  _196
REMARK   81  A    between atoms: _196  and  _197
REMARK   82  A    between atoms: _196  and  _199
REMARK   83  A    between atoms: _199  and  _200
REMARK   84  A    between atoms: _200  and  _201
REMARK   85  A    between atoms: _201  and  _202
REMARK   86  A    between atoms: _202  and  _203
REMARK   87  A    between atoms: _207  and  _209
REMARK   88  A    between atoms: _209  and  _210
REMARK   89  A    between atoms: _209  and  _212
REMARK   90  A    between atoms: _212  and  _213
REMARK   91  A    between atoms: _223  and  _225
REMARK   92  A    between atoms: _225  and  _226
REMARK   93  A    between atoms: _225  and  _228
REMARK   94  A    between atoms: _228  and  _229
REMARK   95  A    between atoms: _232  and  _234
REMARK   96  A    between atoms: _234  and  _235
REMARK   97  A    between atoms: _234  and  _237
REMARK   98  A    between atoms: _237  and  _238
REMARK   99  A    between atoms: _238  and  _239
REMARK  100  A    between atoms: _239  and  _240
REMARK  101  A    between atoms: _240  and  _241
REMARK  102  A    between atoms: _245  and  _247
REMARK  103  A    between atoms: _247  and  _248
REMARK  104  A    between atoms: _247  and  _250
REMARK  105  A    between atoms: _250  and  _251
REMARK  106  A    between atoms: _257  and  _259
REMARK  107  A    between atoms: _259  and  _260
REMARK  108  A    between atoms: _259  and  _262
REMARK  109  A    between atoms: _262  and  _263
REMARK  110  A    between atoms: _269  and  _271
REMARK  111  A    between atoms: _271  and  _272
REMARK  112  A    between atoms: _271  and  _274
REMARK  113  A    between atoms: _274  and  _275
REMARK  114  A    between atoms: _278  and  _280
REMARK  115  A    between atoms: _280  and  _281
REMARK  116  A    between atoms: _280  and  _283
REMARK  117  A    between atoms: _283  and  _284
REMARK  118  A    between atoms: _289  and  _291
REMARK  119  A    between atoms: _291  and  _292
REMARK  120  A    between atoms: _291  and  _294
REMARK  121  A    between atoms: _294  and  _295
REMARK  122  A    between atoms: _297  and  _299
REMARK  123  A    between atoms: _299  and  _300
REMARK  124  A    between atoms: _299  and  _302
REMARK  125  A    between atoms: _302  and  _303
REMARK  126  A    between atoms: _313  and  _315
REMARK  127  A    between atoms: _315  and  _316
REMARK  128  A    between atoms: _318  and  _320
REMARK  129  A    between atoms: _320  and  _321
REMARK  130  A    between atoms: _320  and  _323
REMARK  131  A    between atoms: _323  and  _324
REMARK  132  A    between atoms: _327  and  _329
REMARK  133  A    between atoms: _329  and  _330
REMARK  134  A    between atoms: _329  and  _332
REMARK  135  A    between atoms: _332  and  _333
REMARK  136  A    between atoms: _336  and  _338
REMARK  137  A    between atoms: _338  and  _339
REMARK  138  A    between atoms: _341  and  _343
REMARK  139  A    between atoms: _343  and  _344
REMARK  140  A    between atoms: _343  and  _346
REMARK  141  A    between atoms: _346  and  _347
REMARK  142  A    between atoms: _350  and  _352
REMARK  143  A    between atoms: _352  and  _353
REMARK  144  A    between atoms: _356  and  _358
REMARK  145  A    between atoms: _358  and  _359
REMARK  146  A    between atoms: _358  and  _361
REMARK  147  A    between atoms: _361  and  _362
REMARK  148  A    between atoms: _367  and  _368
REMARK  149  A    between atoms: _370  and  _372
REMARK  150  A    between atoms: _372  and  _373
REMARK  151  A    between atoms: _372  and  _375
REMARK  152  A    between atoms: _375  and  _376
REMARK  153  A    between atoms: _376  and  _377
REMARK  154  A    between atoms: _380  and  _382
REMARK  155  A    between atoms: _382  and  _383
REMARK  156  A    between atoms: _382  and  _385
REMARK  157  A    between atoms: _385  and  _386
REMARK  158  A    between atoms: _389  and  _391
REMARK  159  A    between atoms: _391  and  _392
REMARK  160  A    between atoms: _395  and  _397
REMARK  161  A    between atoms: _397  and  _398
REMARK  162  A    between atoms: _397  and  _400
REMARK  163  A    between atoms: _400  and  _401
REMARK  164  A    between atoms: _401  and  _402
REMARK  165  A    between atoms: _402  and  _403
REMARK  166  A    between atoms: _412  and  _414
REMARK  167  A    between atoms: _414  and  _415
REMARK  168  A    between atoms: _414  and  _417
REMARK  169  A    between atoms: _417  and  _418
REMARK  170  A    between atoms: _421  and  _423
REMARK  171  A    between atoms: _423  and  _424
REMARK  172  A    between atoms: _423  and  _426
REMARK  173  A    between atoms: _429  and  _431
REMARK  174  A    between atoms: _431  and  _432
REMARK  175  A    between atoms: _431  and  _434
REMARK  176  A    between atoms: _434  and  _435
REMARK  177  A    between atoms: _445  and  _447
REMARK  178  A    between atoms: _447  and  _448
REMARK  179  A    between atoms: _447  and  _450
REMARK  180  A    between atoms: _450  and  _451
REMARK  181  A    between atoms: _456  and  _457
REMARK  182  A    between atoms: _459  and  _461
REMARK  183  A    between atoms: _461  and  _462
REMARK  184  A    between atoms: _461  and  _464
REMARK  185  A    between atoms: _464  and  _465
REMARK  186  A    between atoms: _470  and  _471
REMARK  187  A    between atoms: _473  and  _475
REMARK  188  A    between atoms: _475  and  _476
REMARK  189  A    between atoms: _475  and  _478
REMARK  190  A    between atoms: _478  and  _479
REMARK  191  A    between atoms: _482  and  _484
REMARK  192  A    between atoms: _484  and  _485
REMARK  193  A    between atoms: _484  and  _487
REMARK  194  A    between atoms: _487  and  _488
REMARK  195  A    between atoms: _488  and  _489
REMARK  196  A    between atoms: _489  and  _490
REMARK  197  A    between atoms: _490  and  _491
REMARK  198  A    between atoms: _495  and  _497
REMARK  199  A    between atoms: _497  and  _498
REMARK  200  A    between atoms: _497  and  _500
REMARK  201  A    between atoms: _500  and  _501
REMARK  202  A    between atoms: _504  and  _506
REMARK  203  A    between atoms: _506  and  _507
REMARK  204  A    between atoms: _506  and  _509
REMARK  205  A    between atoms: _512  and  _514
REMARK  206  A    between atoms: _514  and  _515
REMARK  207  A    between atoms: _514  and  _517
REMARK  208  A    between atoms: _517  and  _518
REMARK  209  A    between atoms: _521  and  _523
REMARK  210  A    between atoms: _523  and  _524
REMARK  211  A    between atoms: _523  and  _526
REMARK  212  A    between atoms: _526  and  _527
REMARK  213  A    between atoms: _529  and  _531
REMARK  214  A    between atoms: _531  and  _532
REMARK  215  A    between atoms: _534  and  _536
REMARK  216  A    between atoms: _536  and  _537
REMARK  217  A    between atoms: _536  and  _539
REMARK  218  A    between atoms: _539  and  _540
REMARK  219  A    between atoms: _543  and  _545
REMARK  220  A    between atoms: _545  and  _546
REMARK  221  A    between atoms: _545  and  _548
REMARK  222  A    between atoms: _548  and  _549
REMARK  223  A    between atoms: _552  and  _554
REMARK  224  A    between atoms: _554  and  _555
REMARK  225  A    between atoms: _554  and  _557
REMARK  226  A    between atoms: _557  and  _558
REMARK  227  A    between atoms: _563  and  _565
REMARK  228  A    between atoms: _565  and  _566
REMARK  229  A    between atoms: _565  and  _568
REMARK  230  A    between atoms: _568  and  _569
REMARK  231  A    between atoms: _572  and  _574
REMARK  232  A    between atoms: _574  and  _575
REMARK  233  A    between atoms: _574  and  _577
REMARK  234  A    between atoms: _577  and  _578
REMARK  235  A    between atoms: _578  and  _579
REMARK  236  A    between atoms: _579  and  _580
REMARK  237  A    between atoms: _589  and  _591
REMARK  238  A    between atoms: _591  and  _592
REMARK  239  A    between atoms: _591  and  _594
REMARK  240  A    between atoms: _594  and  _595
REMARK  241  A    between atoms: _598  and  _600
REMARK  242  A    between atoms: _600  and  _601
REMARK  243  A    between atoms: _600  and  _603
REMARK  244  A    between atoms: _603  and  _604
REMARK  245  A    between atoms: _604  and  _605
REMARK  246  A    between atoms: _605  and  _606
REMARK  247  A    between atoms: _615  and  _617
REMARK  248  A    between atoms: _617  and  _618
REMARK  249  A    between atoms: _617  and  _620
REMARK  250  A    between atoms: _620  and  _621
REMARK  251  A    between atoms: _621  and  _622
REMARK  252  A    between atoms: _622  and  _623
REMARK  253  A    between atoms: _623  and  _624
REMARK  254  A    between atoms: _628  and  _630
REMARK  255  A    between atoms: _630  and  _631
REMARK  256  A    between atoms: _630  and  _633
REMARK  257  A    between atoms: _633  and  _634
REMARK  258  A    between atoms: _640  and  _642
REMARK  259  A    between atoms: _642  and  _643
REMARK  260  A    between atoms: _646  and  _648
REMARK  261  A    between atoms: _648  and  _649
REMARK  262  A    between atoms: _648  and  _651
REMARK  263  A    between atoms: _651  and  _652
REMARK  264  A    between atoms: _655  and  _657
REMARK  265  A    between atoms: _657  and  _658
REMARK  266  A    between atoms: _657  and  _660
REMARK  267  A    between atoms: _660  and  _661
REMARK  268  A    between atoms: _663  and  _665
REMARK  269  A    between atoms: _665  and  _666
REMARK  270  A    between atoms: _665  and  _668
REMARK  271  A    between atoms: _668  and  _669
REMARK  272  A    between atoms: _669  and  _670
REMARK  273  A    between atoms: _675  and  _677
REMARK  274  A    between atoms: _677  and  _678
REMARK  275  A    between atoms: _677  and  _680
REMARK  276  A    between atoms: _680  and  _681
REMARK  277  A    between atoms: _683  and  _685
REMARK  278  A    between atoms: _685  and  _686
REMARK  279  A    between atoms: _685  and  _688
REMARK  280  A    between atoms: _688  and  _689
REMARK  281  A    between atoms: _691  and  _693
REMARK  282  A    between atoms: _693  and  _694
REMARK  283  A    between atoms: _693  and  _696
REMARK  284  A    between atoms: _696  and  _697
REMARK  285  A    between atoms: _700  and  _702
REMARK  286  A    between atoms: _702  and  _703
REMARK  287  A    between atoms: _705  and  _707
REMARK  288  A    between atoms: _707  and  _708
REMARK  289  A    between atoms: _707  and  _710
REMARK  290  A    between atoms: _710  and  _711
REMARK  291  A    between atoms: _714  and  _716
REMARK  292  A    between atoms: _716  and  _717
REMARK  293  A    between atoms: _716  and  _719
REMARK  294  A    between atoms: _722  and  _724
REMARK  295  A    between atoms: _724  and  _725
REMARK  296  A    between atoms: _724  and  _727
REMARK  297  A    between atoms: _727  and  _728
REMARK  298  A    between atoms: _728  and  _729
REMARK  299  A    between atoms: _731  and  _733
REMARK  300  A    between atoms: _733  and  _734
REMARK  301  A    between atoms: _736  and  _738
REMARK  302  A    between atoms: _738  and  _739
REMARK  303  A    between atoms: _742  and  _744
REMARK  304  A    between atoms: _744  and  _745
REMARK  305  A    between atoms: _744  and  _747
REMARK  306  A    between atoms: _750  and  _752
REMARK  307  A    between atoms: _752  and  _753
REMARK  308  A    between atoms: _752  and  _755
REMARK  309  A    between atoms: _755  and  _756
REMARK  310  A    between atoms: _756  and  _757
REMARK                            x       y       z     vdW  Elec       q    Type
REMARK                         _______ _______ _______ _____ _____    ______ ____
ROOT
ATOM      1  CA  GLU A   1      -3.194   9.631  19.292  0.00  0.00    +0.134 C 
ENDROOT
BRANCH   1   2
ATOM      2  N   GLU A   1      -3.105   9.151  20.703  0.00  0.00    -0.239 NA
ATOM      3  H   GLU A   1      -2.281   9.423  21.277  0.00  0.00    +0.142 HD
ENDBRANCH   1   2
BRANCH   1   4
ATOM      4  C   GLU A   1      -3.348   8.528  18.240  0.00  0.00    +0.224 C 
ATOM      5  O   GLU A   1      -4.067   8.679  17.239  0.00  0.00    -0.287 OA
ENDBRANCH   1   4
BRANCH   1   6
ATOM      6  CB  GLU A   1      -2.009  10.515  18.964  0.00  0.00    +0.037 C 
BRANCH   6   7
ATOM      7  CG  GLU A   1      -2.373  11.972  19.261  0.00  0.00    +0.116 C 
BRANCH   7   8
ATOM      8  CD  GLU A   1      -1.157  12.897  19.437  0.00  0.00    +0.365 C 
ATOM      9  OE2 GLU A   1      -1.366  14.058  19.885  0.00  0.00    -0.246 OA
ATOM     10  OE1 GLU A   1      -0.028  12.455  19.129  0.00  0.00    -0.246 OA
ENDBRANCH   7   8
ENDBRANCH   6   7
ENDBRANCH   1   6
TORSDOF 5
REMARK  Name = ../refined-set-2016/3i25/3i25_pocket.pdb
REMARK  310 active torsions:
REMARK  status: ('A' for Active; 'I' for Inactive)
REMARK    1  A    between atoms: _1  and  _3
REMARK    2  A    between atoms: _3  and  _4
REMARK    3  A    between atoms: _3  and  _6
REMARK    4  A    between atoms: _6  and  _7
REMARK    5  A    between atoms: _7  and  _8
REMARK    6  A    between atoms: _8  and  _9
REMARK    7  A    between atoms: _9  and  _10
REMARK    8  A    between atoms: _14  and  _16
REMARK    9  A    between atoms: _16  and  _17
REMARK   10  A    between atoms: _16  and  _19
REMARK   11  A    between atoms: _19  and  _20
REMARK   12  A    between atoms: _22  and  _24
REMARK   13  A    between atoms: _24  and  _25
REMARK   14  A    between atoms: _27  and  _29
REMARK   15  A    between atoms: _29  and  _30
REMARK   16  A    between atoms: _29  and  _32
REMARK   17  A    between atoms: _32  and  _33
REMARK   18  A    between atoms: _33  and  _34
REMARK   19  A    between atoms: _39  and  _41
REMARK   20  A    between atoms: _41  and  _42
REMARK   21  A    between atoms: _44  and  _46
REMARK   22  A    between atoms: _46  and  _47
REMARK   23  A    between atoms: _46  and  _49
REMARK   24  A    between atoms: _49  and  _50
REMARK   25  A    between atoms: _55  and  _56
REMARK   26  A    between atoms: _58  and  _60
REMARK   27  A    between atoms: _60  and  _61
REMARK   28  A    between atoms: _60  and  _63
REMARK   29  A    between atoms: _63  and  _64
REMARK   30  A    between atoms: _67  and  _69
REMARK   31  A    between atoms: _69  and  _70
REMARK   32  A    between atoms: _69  and  _72
REMARK   33  A    between atoms: _75  and  _77
REMARK   34  A    between atoms: _77  and  _78
REMARK   35  A    between atoms: _77  and  _80
REMARK   36  A    between atoms: _80  and  _81
REMARK   37  A    between atoms: _84  and  _86
REMARK   38  A    between atoms: _86  and  _87
REMARK   39  A    between atoms: _86  and  _89
REMARK   40  A    between atoms: _89  and  _90
REMARK   41  A    between atoms: _93  and  _95
REMARK   42  A    between atoms: _95  and  _96
REMARK   43  A    between atoms: _98  and  _100
REMARK   44  A    between atoms: _100  and  _101
REMARK   45  A    between atoms: _100  and  _103
REMARK   46  A    between atoms: _103  and  _104
REMARK   47  A    between atoms: _106  and  _108
REMARK   48  A    between atoms: _108  and  _109
REMARK   49  A    between atoms: _108  and  _111
REMARK   50  A    between atoms: _111  and  _112
REMARK   51  A    between atoms: _114  and  _116
REMARK   52  A    between atoms: _116  and  _117
REMARK   53  A    between atoms: _116  and  _119
REMARK   54  A    between atoms: _119  and  _120
REMARK   55  A    between atoms: _125  and  _127
REMARK   56  A    between atoms: _127  and  _128
REMARK   57  A    between atoms: _127  and  _130
REMARK   58  A    between atoms: _130  and  _131
REMARK   59  A    between atoms: _136  and  _137
REMARK   60  A    between atoms: _139  and  _141
REMARK   61  A    between atoms: _141  and  _142
REMARK   62  A    between atoms: _141  and  _144
REMARK   63  A    between atoms: _148  and  _149
REMARK   64  A    between atoms: _154  and  _156
REMARK   65  A    between atoms: _156  and  _157
REMARK   66  A    between atoms: _156  and  _159
REMARK   67  A    between atoms: _159  and  _160
REMARK   68  A    between atoms: _165  and  _166
REMARK   69  A    between atoms: _168  and  _170
REMARK   70  A    between atoms: _170  and  _171
REMARK   71  A    between atoms: _170  and  _173
REMARK   72  A    between atoms: _173  and  _174
REMARK   73  A    between atoms: _177  and  _179
REMARK   74  A    between atoms: _179  and  _180
REMARK   75  A    between atoms: _179  and  _182
REMARK   76  A    between atoms: _182  and  _183
REMARK   77  A    between atoms: _183  and  _184
REMARK   78  A    between atoms: _189  and  _191
REMARK   79  A    between atoms: _191  and  _192
REMARK   80  A    between atoms: _194  and  _196
REMARK   81  A    between atoms: _196  and  _197
REMARK   82  A    between atoms: _196  and  _199
REMARK   83  A    between atoms: _199  and  _200
REMARK   84  A    between atoms: _200  and  _201
REMARK   85  A    between atoms: _201  and  _202
REMARK   86  A    between atoms: _202  and  _203
REMARK   87  A    between atoms: _207  and  _209
REMARK   88  A    between atoms: _209  and  _210
REMARK   89  A    between atoms: _209  and  _212
REMARK   90  A    between atoms: _212  and  _213
REMARK   91  A    between atoms: _223  and  _225
REMARK   92  A    between atoms: _225  and  _226
REMARK   93  A    between atoms: _225  and  _228
REMARK   94  A    between atoms: _228  and  _229
REMARK   95  A    between atoms: _232  and  _234
REMARK   96  A    between atoms: _234  and  _235
REMARK   97  A    between atoms: _234  and  _237
REMARK   98  A    between atoms: _237  and  _238
REMARK   99  A    between atoms: _238  and  _239
REMARK  100  A    between atoms: _239  and  _240
REMARK  101  A    between atoms: _240  and  _241
REMARK  102  A    between atoms: _245  and  _247
REMARK  103  A    between atoms: _247  and  _248
REMARK  104  A    between atoms: _247  and  _250
REMARK  105  A    between atoms: _250  and  _251
REMARK  106  A    between atoms: _257  and  _259
REMARK  107  A    between atoms: _259  and  _260
REMARK  108  A    between atoms: _259  and  _262
REMARK  109  A    between atoms: _262  and  _263
REMARK  110  A    between atoms: _269  and  _271
REMARK  111  A    between atoms: _271  and  _272
REMARK  112  A    between atoms: _271  and  _274
REMARK  113  A    between atoms: _274  and  _275
REMARK  114  A    between atoms: _278  and  _280
REMARK  115  A    between atoms: _280  and  _281
REMARK  116  A    between atoms: _280  and  _283
REMARK  117  A    between atoms: _283  and  _284
REMARK  118  A    between atoms: _289  and  _291
REMARK  119  A    between atoms: _291  and  _292
REMARK  120  A    between atoms: _291  and  _294
REMARK  121  A    between atoms: _294  and  _295
REMARK  122  A    between atoms: _297  and  _299
REMARK  123  A    between atoms: _299  and  _300
REMARK  124  A    between atoms: _299  and  _302
REMARK  125  A    between atoms: _302  and  _303
REMARK  126  A    between atoms: _313  and  _315
REMARK  127  A    between atoms: _315  and  _316
REMARK  128  A    between atoms: _318  and  _320
REMARK  129  A    between atoms: _320  and  _321
REMARK  130  A    between atoms: _320  and  _323
REMARK  131  A    between atoms: _323  and  _324
REMARK  132  A    between atoms: _327  and  _329
REMARK  133  A    between atoms: _329  and  _330
REMARK  134  A    between atoms: _329  and  _332
REMARK  135  A    between atoms: _332  and  _333
REMARK  136  A    between atoms: _336  and  _338
REMARK  137  A    between atoms: _338  and  _339
REMARK  138  A    between atoms: _341  and  _343
REMARK  139  A    between atoms: _343  and  _344
REMARK  140  A    between atoms: _343  and  _346
REMARK  141  A    between atoms: _346  and  _347
REMARK  142  A    between atoms: _350  and  _352
REMARK  143  A    between atoms: _352  and  _353
REMARK  144  A    between atoms: _356  and  _358
REMARK  145  A    between atoms: _358  and  _359
REMARK  146  A    between atoms: _358  and  _361
REMARK  147  A    between atoms: _361  and  _362
REMARK  148  A    between atoms: _367  and  _368
REMARK  149  A    between atoms: _370  and  _372
REMARK  150  A    between atoms: _372  and  _373
REMARK  151  A    between atoms: _372  and  _375
REMARK  152  A    between atoms: _375  and  _376
REMARK  153  A    between atoms: _376  and  _377
REMARK  154  A    between atoms: _380  and  _382
REMARK  155  A    between atoms: _382  and  _383
REMARK  156  A    between atoms: _382  and  _385
REMARK  157  A    between atoms: _385  and  _386
REMARK  158  A    between atoms: _389  and  _391
REMARK  159  A    between atoms: _391  and  _392
REMARK  160  A    between atoms: _395  and  _397
REMARK  161  A    between atoms: _397  and  _398
REMARK  162  A    between atoms: _397  and  _400
REMARK  163  A    between atoms: _400  and  _401
REMARK  164  A    between atoms: _401  and  _402
REMARK  165  A    between atoms: _402  and  _403
REMARK  166  A    between atoms: _412  and  _414
REMARK  167  A    between atoms: _414  and  _415
REMARK  168  A    between atoms: _414  and  _417
REMARK  169  A    between atoms: _417  and  _418
REMARK  170  A    between atoms: _421  and  _423
REMARK  171  A    between atoms: _423  and  _424
REMARK  172  A    between atoms: _423  and  _426
REMARK  173  A    between atoms: _429  and  _431
REMARK  174  A    between atoms: _431  and  _432
REMARK  175  A    between atoms: _431  and  _434
REMARK  176  A    between atoms: _434  and  _435
REMARK  177  A    between atoms: _445  and  _447
REMARK  178  A    between atoms: _447  and  _448
REMARK  179  A    between atoms: _447  and  _450
REMARK  180  A    between atoms: _450  and  _451
REMARK  181  A    between atoms: _456  and  _457
REMARK  182  A    between atoms: _459  and  _461
REMARK  183  A    between atoms: _461  and  _462
REMARK  184  A    between atoms: _461  and  _464
REMARK  185  A    between atoms: _464  and  _465
REMARK  186  A    between atoms: _470  and  _471
REMARK  187  A    between atoms: _473  and  _475
REMARK  188  A    between atoms: _475  and  _476
REMARK  189  A    between atoms: _475  and  _478
REMARK  190  A    between atoms: _478  and  _479
REMARK  191  A    between atoms: _482  and  _484
REMARK  192  A    between atoms: _484  and  _485
REMARK  193  A    between atoms: _484  and  _487
REMARK  194  A    between atoms: _487  and  _488
REMARK  195  A    between atoms: _488  and  _489
REMARK  196  A    between atoms: _489  and  _490
REMARK  197  A    between atoms: _490  and  _491
REMARK  198  A    between atoms: _495  and  _497
REMARK  199  A    between atoms: _497  and  _498
REMARK  200  A    between atoms: _497  and  _500
REMARK  201  A    between atoms: _500  and  _501
REMARK  202  A    between atoms: _504  and  _506
REMARK  203  A    between atoms: _506  and  _507
REMARK  204  A    between atoms: _506  and  _509
REMARK  205  A    between atoms: _512  and  _514
REMARK  206  A    between atoms: _514  and  _515
REMARK  207  A    between atoms: _514  and  _517
REMARK  208  A    between atoms: _517  and  _518
REMARK  209  A    between atoms: _521  and  _523
REMARK  210  A    between atoms: _523  and  _524
REMARK  211  A    between atoms: _523  and  _526
REMARK  212  A    between atoms: _526  and  _527
REMARK  213  A    between atoms: _529  and  _531
REMARK  214  A    between atoms: _531  and  _532
REMARK  215  A    between atoms: _534  and  _536
REMARK  216  A    between atoms: _536  and  _537
REMARK  217  A    between atoms: _536  and  _539
REMARK  218  A    between atoms: _539  and  _540
REMARK  219  A    between atoms: _543  and  _545
REMARK  220  A    between atoms: _545  and  _546
REMARK  221  A    between atoms: _545  and  _548
REMARK  222  A    between atoms: _548  and  _549
REMARK  223  A    between atoms: _552  and  _554
REMARK  224  A    between atoms: _554  and  _555
REMARK  225  A    between atoms: _554  and  _557
REMARK  226  A    between atoms: _557  and  _558
REMARK  227  A    between atoms: _563  and  _565
REMARK  228  A    between atoms: _565  and  _566
REMARK  229  A    between atoms: _565  and  _568
REMARK  230  A    between atoms: _568  and  _569
REMARK  231  A    between atoms: _572  and  _574
REMARK  232  A    between atoms: _574  and  _575
REMARK  233  A    between atoms: _574  and  _577
REMARK  234  A    between atoms: _577  and  _578
REMARK  235  A    between atoms: _578  and  _579
REMARK  236  A    between atoms: _579  and  _580
REMARK  237  A    between atoms: _589  and  _591
REMARK  238  A    between atoms: _591  and  _592
REMARK  239  A    between atoms: _591  and  _594
REMARK  240  A    between atoms: _594  and  _595
REMARK  241  A    between atoms: _598  and  _600
REMARK  242  A    between atoms: _600  and  _601
REMARK  243  A    between atoms: _600  and  _603
REMARK  244  A    between atoms: _603  and  _604
REMARK  245  A    between atoms: _604  and  _605
REMARK  246  A    between atoms: _605  and  _606
REMARK  247  A    between atoms: _615  and  _617
REMARK  248  A    between atoms: _617  and  _618
REMARK  249  A    between atoms: _617  and  _620
REMARK  250  A    between atoms: _620  and  _621
REMARK  251  A    between atoms: _621  and  _622
REMARK  252  A    between atoms: _622  and  _623
REMARK  253  A    between atoms: _623  and  _624
REMARK  254  A    between atoms: _628  and  _630
REMARK  255  A    between atoms: _630  and  _631
REMARK  256  A    between atoms: _630  and  _633
REMARK  257  A    between atoms: _633  and  _634
REMARK  258  A    between atoms: _640  and  _642
REMARK  259  A    between atoms: _642  and  _643
REMARK  260  A    between atoms: _646  and  _648
REMARK  261  A    between atoms: _648  and  _649
REMARK  262  A    between atoms: _648  and  _651
REMARK  263  A    between atoms: _651  and  _652
REMARK  264  A    between atoms: _655  and  _657
REMARK  265  A    between atoms: _657  and  _658
REMARK  266  A    between atoms: _657  and  _660
REMARK  267  A    between atoms: _660  and  _661
REMARK  268  A    between atoms: _663  and  _665
REMARK  269  A    between atoms: _665  and  _666
REMARK  270  A    between atoms: _665  and  _668
REMARK  271  A    between atoms: _668  and  _669
REMARK  272  A    between atoms: _669  and  _670
REMARK  273  A    between atoms: _675  and  _677
REMARK  274  A    between atoms: _677  and  _678
REMARK  275  A    between atoms: _677  and  _680
REMARK  276  A    between atoms: _680  and  _681
REMARK  277  A    between atoms: _683  and  _685
REMARK  278  A    between atoms: _685  and  _686
REMARK  279  A    between atoms: _685  and  _688
REMARK  280  A    between atoms: _688  and  _689
REMARK  281  A    between atoms: _691  and  _693
REMARK  282  A    between atoms: _693  and  _694
REMARK  283  A    between atoms: _693  and  _696
REMARK  284  A    between atoms: _696  and  _697
REMARK  285  A    between atoms: _700  and  _702
REMARK  286  A    between atoms: _702  and  _703
REMARK  287  A    between atoms: _705  and  _707
REMARK  288  A    between atoms: _707  and  _708
REMARK  289  A    between atoms: _707  and  _710
REMARK  290  A    between atoms: _710  and  _711
REMARK  291  A    between atoms: _714  and  _716
REMARK  292  A    between atoms: _716  and  _717
REMARK  293  A    between atoms: _716  and  _719
REMARK  294  A    between atoms: _722  and  _724
REMARK  295  A    between atoms: _724  and  _725
REMARK  296  A    between atoms: _724  and  _727
REMARK  297  A    between atoms: _727  and  _728
REMARK  298  A    between atoms: _728  and  _729
REMARK  299  A    between atoms: _731  and  _733
REMARK  300  A    between atoms: _733  and  _734
REMARK  301  A    between atoms: _736  and  _738
REMARK  302  A    between atoms: _738  and  _739
REMARK  303  A    between atoms: _742  and  _744
REMARK  304  A    between atoms: _744  and  _745
REMARK  305  A    between atoms: _744  and  _747
REMARK  306  A    between atoms: _750  and  _752
REMARK  307  A    between atoms: _752  and  _753
REMARK  308  A    between atoms: _752  and  _755
REMARK  309  A    between atoms: _755  and  _756
REMARK  310  A    between atoms: _756  and  _757
REMARK                            x       y       z     vdW  Elec       q    Type
REMARK                         _______ _______ _______ _____ _____    ______ ____
ROOT
ATOM      1  O   HOH     1      -6.482   9.017  34.514  0.00  0.00    +0.000 OA
ENDROOT
TORSDOF 0
REMARK  Name = ../refined-set-2016/3i25/3i25_pocket.pdb
REMARK  310 active torsions:
REMARK  status: ('A' for Active; 'I' for Inactive)
REMARK    1  A    between atoms: _1  and  _3
REMARK    2  A    between atoms: _3  and  _4
REMARK    3  A    between atoms: _3  and  _6
REMARK    4  A    between atoms: _6  and  _7
REMARK    5  A    between atoms: _7  and  _8
REMARK    6  A    between atoms: _8  and  _9
REMARK    7  A    between atoms: _9  and  _10
REMARK    8  A    between atoms: _14  and  _16
REMARK    9  A    between atoms: _16  and  _17
REMARK   10  A    between atoms: _16  and  _19
REMARK   11  A    between atoms: _19  and  _20
REMARK   12  A    between atoms: _22  and  _24
REMARK   13  A    between atoms: _24  and  _25
REMARK   14  A    between atoms: _27  and  _29
REMARK   15  A    between atoms: _29  and  _30
REMARK   16  A    between atoms: _29  and  _32
REMARK   17  A    between atoms: _32  and  _33
REMARK   18  A    between atoms: _33  and  _34
REMARK   19  A    between atoms: _39  and  _41
REMARK   20  A    between atoms: _41  and  _42
REMARK   21  A    between atoms: _44  and  _46
REMARK   22  A    between atoms: _46  and  _47
REMARK   23  A    between atoms: _46  and  _49
REMARK   24  A    between atoms: _49  and  _50
REMARK   25  A    between atoms: _55  and  _56
REMARK   26  A    between atoms: _58  and  _60
REMARK   27  A    between atoms: _60  and  _61
REMARK   28  A    between atoms: _60  and  _63
REMARK   29  A    between atoms: _63  and  _64
REMARK   30  A    between atoms: _67  and  _69
REMARK   31  A    between atoms: _69  and  _70
REMARK   32  A    between atoms: _69  and  _72
REMARK   33  A    between atoms: _75  and  _77
REMARK   34  A    between atoms: _77  and  _78
REMARK   35  A    between atoms: _77  and  _80
REMARK   36  A    between atoms: _80  and  _81
REMARK   37  A    between atoms: _84  and  _86
REMARK   38  A    between atoms: _86  and  _87
REMARK   39  A    between atoms: _86  and  _89
REMARK   40  A    between atoms: _89  and  _90
REMARK   41  A    between atoms: _93  and  _95
REMARK   42  A    between atoms: _95  and  _96
REMARK   43  A    between atoms: _98  and  _100
REMARK   44  A    between atoms: _100  and  _101
REMARK   45  A    between atoms: _100  and  _103
REMARK   46  A    between atoms: _103  and  _104
REMARK   47  A    between atoms: _106  and  _108
REMARK   48  A    between atoms: _108  and  _109
REMARK   49  A    between atoms: _108  and  _111
REMARK   50  A    between atoms: _111  and  _112
REMARK   51  A    between atoms: _114  and  _116
REMARK   52  A    between atoms: _116  and  _117
REMARK   53  A    between atoms: _116  and  _119
REMARK   54  A    between atoms: _119  and  _120
REMARK   55  A    between atoms: _125  and  _127
REMARK   56  A    between atoms: _127  and  _128
REMARK   57  A    between atoms: _127  and  _130
REMARK   58  A    between atoms: _130  and  _131
REMARK   59  A    between atoms: _136  and  _137
REMARK   60  A    between atoms: _139  and  _141
REMARK   61  A    between atoms: _141  and  _142
REMARK   62  A    between atoms: _141  and  _144
REMARK   63  A    between atoms: _148  and  _149
REMARK   64  A    between atoms: _154  and  _156
REMARK   65  A    between atoms: _156  and  _157
REMARK   66  A    between atoms: _156  and  _159
REMARK   67  A    between atoms: _159  and  _160
REMARK   68  A    between atoms: _165  and  _166
REMARK   69  A    between atoms: _168  and  _170
REMARK   70  A    between atoms: _170  and  _171
REMARK   71  A    between atoms: _170  and  _173
REMARK   72  A    between atoms: _173  and  _174
REMARK   73  A    between atoms: _177  and  _179
REMARK   74  A    between atoms: _179  and  _180
REMARK   75  A    between atoms: _179  and  _182
REMARK   76  A    between atoms: _182  and  _183
REMARK   77  A    between atoms: _183  and  _184
REMARK   78  A    between atoms: _189  and  _191
REMARK   79  A    between atoms: _191  and  _192
REMARK   80  A    between atoms: _194  and  _196
REMARK   81  A    between atoms: _196  and  _197
REMARK   82  A    between atoms: _196  and  _199
REMARK   83  A    between atoms: _199  and  _200
REMARK   84  A    between atoms: _200  and  _201
REMARK   85  A    between atoms: _201  and  _202
REMARK   86  A    between atoms: _202  and  _203
REMARK   87  A    between atoms: _207  and  _209
REMARK   88  A    between atoms: _209  and  _210
REMARK   89  A    between atoms: _209  and  _212
REMARK   90  A    between atoms: _212  and  _213
REMARK   91  A    between atoms: _223  and  _225
REMARK   92  A    between atoms: _225  and  _226
REMARK   93  A    between atoms: _225  and  _228
REMARK   94  A    between atoms: _228  and  _229
REMARK   95  A    between atoms: _232  and  _234
REMARK   96  A    between atoms: _234  and  _235
REMARK   97  A    between atoms: _234  and  _237
REMARK   98  A    between atoms: _237  and  _238
REMARK   99  A    between atoms: _238  and  _239
REMARK  100  A    between atoms: _239  and  _240
REMARK  101  A    between atoms: _240  and  _241
REMARK  102  A    between atoms: _245  and  _247
REMARK  103  A    between atoms: _247  and  _248
REMARK  104  A    between atoms: _247  and  _250
REMARK  105  A    between atoms: _250  and  _251
REMARK  106  A    between atoms: _257  and  _259
REMARK  107  A    between atoms: _259  and  _260
REMARK  108  A    between atoms: _259  and  _262
REMARK  109  A    between atoms: _262  and  _263
REMARK  110  A    between atoms: _269  and  _271
REMARK  111  A    between atoms: _271  and  _272
REMARK  112  A    between atoms: _271  and  _274
REMARK  113  A    between atoms: _274  and  _275
REMARK  114  A    between atoms: _278  and  _280
REMARK  115  A    between atoms: _280  and  _281
REMARK  116  A    between atoms: _280  and  _283
REMARK  117  A    between atoms: _283  and  _284
REMARK  118  A    between atoms: _289  and  _291
REMARK  119  A    between atoms: _291  and  _292
REMARK  120  A    between atoms: _291  and  _294
REMARK  121  A    between atoms: _294  and  _295
REMARK  122  A    between atoms: _297  and  _299
REMARK  123  A    between atoms: _299  and  _300
REMARK  124  A    between atoms: _299  and  _302
REMARK  125  A    between atoms: _302  and  _303
REMARK  126  A    between atoms: _313  and  _315
REMARK  127  A    between atoms: _315  and  _316
REMARK  128  A    between atoms: _318  and  _320
REMARK  129  A    between atoms: _320  and  _321
REMARK  130  A    between atoms: _320  and  _323
REMARK  131  A    between atoms: _323  and  _324
REMARK  132  A    between atoms: _327  and  _329
REMARK  133  A    between atoms: _329  and  _330
REMARK  134  A    between atoms: _329  and  _332
REMARK  135  A    between atoms: _332  and  _333
REMARK  136  A    between atoms: _336  and  _338
REMARK  137  A    between atoms: _338  and  _339
REMARK  138  A    between atoms: _341  and  _343
REMARK  139  A    between atoms: _343  and  _344
REMARK  140  A    between atoms: _343  and  _346
REMARK  141  A    between atoms: _346  and  _347
REMARK  142  A    between atoms: _350  and  _352
REMARK  143  A    between atoms: _352  and  _353
REMARK  144  A    between atoms: _356  and  _358
REMARK  145  A    between atoms: _358  and  _359
REMARK  146  A    between atoms: _358  and  _361
REMARK  147  A    between atoms: _361  and  _362
REMARK  148  A    between atoms: _367  and  _368
REMARK  149  A    between atoms: _370  and  _372
REMARK  150  A    between atoms: _372  and  _373
REMARK  151  A    between atoms: _372  and  _375
REMARK  152  A    between atoms: _375  and  _376
REMARK  153  A    between atoms: _376  and  _377
REMARK  154  A    between atoms: _380  and  _382
REMARK  155  A    between atoms: _382  and  _383
REMARK  156  A    between atoms: _382  and  _385
REMARK  157  A    between atoms: _385  and  _386
REMARK  158  A    between atoms: _389  and  _391
REMARK  159  A    between atoms: _391  and  _392
REMARK  160  A    between atoms: _395  and  _397
REMARK  161  A    between atoms: _397  and  _398
REMARK  162  A    between atoms: _397  and  _400
REMARK  163  A    between atoms: _400  and  _401
REMARK  164  A    between atoms: _401  and  _402
REMARK  165  A    between atoms: _402  and  _403
REMARK  166  A    between atoms: _412  and  _414
REMARK  167  A    between atoms: _414  and  _415
REMARK  168  A    between atoms: _414  and  _417
REMARK  169  A    between atoms: _417  and  _418
REMARK  170  A    between atoms: _421  and  _423
REMARK  171  A    between atoms: _423  and  _424
REMARK  172  A    between atoms: _423  and  _426
REMARK  173  A    between atoms: _429  and  _431
REMARK  174  A    between atoms: _431  and  _432
REMARK  175  A    between atoms: _431  and  _434
REMARK  176  A    between atoms: _434  and  _435
REMARK  177  A    between atoms: _445  and  _447
REMARK  178  A    between atoms: _447  and  _448
REMARK  179  A    between atoms: _447  and  _450
REMARK  180  A    between atoms: _450  and  _451
REMARK  181  A    between atoms: _456  and  _457
REMARK  182  A    between atoms: _459  and  _461
REMARK  183  A    between atoms: _461  and  _462
REMARK  184  A    between atoms: _461  and  _464
REMARK  185  A    between atoms: _464  and  _465
REMARK  186  A    between atoms: _470  and  _471
REMARK  187  A    between atoms: _473  and  _475
REMARK  188  A    between atoms: _475  and  _476
REMARK  189  A    between atoms: _475  and  _478
REMARK  190  A    between atoms: _478  and  _479
REMARK  191  A    between atoms: _482  and  _484
REMARK  192  A    between atoms: _484  and  _485
REMARK  193  A    between atoms: _484  and  _487
REMARK  194  A    between atoms: _487  and  _488
REMARK  195  A    between atoms: _488  and  _489
REMARK  196  A    between atoms: _489  and  _490
REMARK  197  A    between atoms: _490  and  _491
REMARK  198  A    between atoms: _495  and  _497
REMARK  199  A    between atoms: _497  and  _498
REMARK  200  A    between atoms: _497  and  _500
REMARK  201  A    between atoms: _500  and  _501
REMARK  202  A    between atoms: _504  and  _506
REMARK  203  A    between atoms: _506  and  _507
REMARK  204  A    between atoms: _506  and  _509
REMARK  205  A    between atoms: _512  and  _514
REMARK  206  A    between atoms: _514  and  _515
REMARK  207  A    between atoms: _514  and  _517
REMARK  208  A    between atoms: _517  and  _518
REMARK  209  A    between atoms: _521  and  _523
REMARK  210  A    between atoms: _523  and  _524
REMARK  211  A    between atoms: _523  and  _526
REMARK  212  A    between atoms: _526  and  _527
REMARK  213  A    between atoms: _529  and  _531
REMARK  214  A    between atoms: _531  and  _532
REMARK  215  A    between atoms: _534  and  _536
REMARK  216  A    between atoms: _536  and  _537
REMARK  217  A    between atoms: _536  and  _539
REMARK  218  A    between atoms: _539  and  _540
REMARK  219  A    between atoms: _543  and  _545
REMARK  220  A    between atoms: _545  and  _546
REMARK  221  A    between atoms: _545  and  _548
REMARK  222  A    between atoms: _548  and  _549
REMARK  223  A    between atoms: _552  and  _554
REMARK  224  A    between atoms: _554  and  _555
REMARK  225  A    between atoms: _554  and  _557
REMARK  226  A    between atoms: _557  and  _558
REMARK  227  A    between atoms: _563  and  _565
REMARK  228  A    between atoms: _565  and  _566
REMARK  229  A    between atoms: _565  and  _568
REMARK  230  A    between atoms: _568  and  _569
REMARK  231  A    between atoms: _572  and  _574
REMARK  232  A    between atoms: _574  and  _575
REMARK  233  A    between atoms: _574  and  _577
REMARK  234  A    between atoms: _577  and  _578
REMARK  235  A    between atoms: _578  and  _579
REMARK  236  A    between atoms: _579  and  _580
REMARK  237  A    between atoms: _589  and  _591
REMARK  238  A    between atoms: _591  and  _592
REMARK  239  A    between atoms: _591  and  _594
REMARK  240  A    between atoms: _594  and  _595
REMARK  241  A    between atoms: _598  and  _600
REMARK  242  A    between atoms: _600  and  _601
REMARK  243  A    between atoms: _600  and  _603
REMARK  244  A    between atoms: _603  and  _604
REMARK  245  A    between atoms: _604  and  _605
REMARK  246  A    between atoms: _605  and  _606
REMARK  247  A    between atoms: _615  and  _617
REMARK  248  A    between atoms: _617  and  _618
REMARK  249  A    between atoms: _617  and  _620
REMARK  250  A    between atoms: _620  and  _621
REMARK  251  A    between atoms: _621  and  _622
REMARK  252  A    between atoms: _622  and  _623
REMARK  253  A    between atoms: _623  and  _624
REMARK  254  A    between atoms: _628  and  _630
REMARK  255  A    between atoms: _630  and  _631
REMARK  256  A    between atoms: _630  and  _633
REMARK  257  A    between atoms: _633  and  _634
REMARK  258  A    between atoms: _640  and  _642
REMARK  259  A    between atoms: _642  and  _643
REMARK  260  A    between atoms: _646  and  _648
REMARK  261  A    between atoms: _648  and  _649
REMARK  262  A    between atoms: _648  and  _651
REMARK  263  A    between atoms: _651  and  _652
REMARK  264  A    between atoms: _655  and  _657
REMARK  265  A    between atoms: _657  and  _658
REMARK  266  A    between atoms: _657  and  _660
REMARK  267  A    between atoms: _660  and  _661
REMARK  268  A    between atoms: _663  and  _665
REMARK  269  A    between atoms: _665  and  _666
REMARK  270  A    between atoms: _665  and  _668
REMARK  271  A    between atoms: _668  and  _669
REMARK  272  A    between atoms: _669  and  _670
REMARK  273  A    between atoms: _675  and  _677
REMARK  274  A    between atoms: _677  and  _678
REMARK  275  A    between atoms: _677  and  _680
REMARK  276  A    between atoms: _680  and  _681
REMARK  277  A    between atoms: _683  and  _685
REMARK  278  A    between atoms: _685  and  _686
REMARK  279  A    between atoms: _685  and  _688
REMARK  280  A    between atoms: _688  and  _689
REMARK  281  A    between atoms: _691  and  _693
REMARK  282  A    between atoms: _693  and  _694
REMARK  283  A    between atoms: _693  and  _696
REMARK  284  A    between atoms: _696  and  _697
REMARK  285  A    between atoms: _700  and  _702
REMARK  286  A    between atoms: _702  and  _703
REMARK  287  A    between atoms: _705  and  _707
REMARK  288  A    between atoms: _707  and  _708
REMARK  289  A    between atoms: _707  and  _710
REMARK  290  A    between atoms: _710  and  _711
REMARK  291  A    between atoms: _714  and  _716
REMARK  292  A    between atoms: _716  and  _717
REMARK  293  A    between atoms: _716  and  _719
REMARK  294  A    between atoms: _722  and  _724
REMARK  295  A    between atoms: _724  and  _725
REMARK  296  A    between atoms: _724  and  _727
REMARK  297  A    between atoms: _727  and  _728
REMARK  298  A    between atoms: _728  and  _729
REMARK  299  A    between atoms: _731  and  _733
REMARK  300  A    between atoms: _733  and  _734
REMARK  301  A    between atoms: _736  and  _738
REMARK  302  A    between atoms: _738  and  _739
REMARK  303  A    between atoms: _742  and  _744
REMARK  304  A    between atoms: _744  and  _745
REMARK  305  A    between atoms: _744  and  _747
REMARK  306  A    between atoms: _750  and  _752
REMARK  307  A    between atoms: _752  and  _753
REMARK  308  A    between atoms: _752  and  _755
REMARK  309  A    between atoms: _755  and  _756
REMARK  310  A    between atoms: _756  and  _757
REMARK                            x       y       z     vdW  Elec       q    Type
REMARK                         _______ _______ _______ _____ _____    ______ ____
ROOT
ATOM      1  O   HOH     1       1.720  13.636  34.121  0.00  0.00    +0.000 OA
ENDROOT
TORSDOF 0
REMARK  Name = ../refined-set-2016/3i25/3i25_pocket.pdb
REMARK  310 active torsions:
REMARK  status: ('A' for Active; 'I' for Inactive)
REMARK    1  A    between atoms: _1  and  _3
REMARK    2  A    between atoms: _3  and  _4
REMARK    3  A    between atoms: _3  and  _6
REMARK    4  A    between atoms: _6  and  _7
REMARK    5  A    between atoms: _7  and  _8
REMARK    6  A    between atoms: _8  and  _9
REMARK    7  A    between atoms: _9  and  _10
REMARK    8  A    between atoms: _14  and  _16
REMARK    9  A    between atoms: _16  and  _17
REMARK   10  A    between atoms: _16  and  _19
REMARK   11  A    between atoms: _19  and  _20
REMARK   12  A    between atoms: _22  and  _24
REMARK   13  A    between atoms: _24  and  _25
REMARK   14  A    between atoms: _27  and  _29
REMARK   15  A    between atoms: _29  and  _30
REMARK   16  A    between atoms: _29  and  _32
REMARK   17  A    between atoms: _32  and  _33
REMARK   18  A    between atoms: _33  and  _34
REMARK   19  A    between atoms: _39  and  _41
REMARK   20  A    between atoms: _41  and  _42
REMARK   21  A    between atoms: _44  and  _46
REMARK   22  A    between atoms: _46  and  _47
REMARK   23  A    between atoms: _46  and  _49
REMARK   24  A    between atoms: _49  and  _50
REMARK   25  A    between atoms: _55  and  _56
REMARK   26  A    between atoms: _58  and  _60
REMARK   27  A    between atoms: _60  and  _61
REMARK   28  A    between atoms: _60  and  _63
REMARK   29  A    between atoms: _63  and  _64
REMARK   30  A    between atoms: _67  and  _69
REMARK   31  A    between atoms: _69  and  _70
REMARK   32  A    between atoms: _69  and  _72
REMARK   33  A    between atoms: _75  and  _77
REMARK   34  A    between atoms: _77  and  _78
REMARK   35  A    between atoms: _77  and  _80
REMARK   36  A    between atoms: _80  and  _81
REMARK   37  A    between atoms: _84  and  _86
REMARK   38  A    between atoms: _86  and  _87
REMARK   39  A    between atoms: _86  and  _89
REMARK   40  A    between atoms: _89  and  _90
REMARK   41  A    between atoms: _93  and  _95
REMARK   42  A    between atoms: _95  and  _96
REMARK   43  A    between atoms: _98  and  _100
REMARK   44  A    between atoms: _100  and  _101
REMARK   45  A    between atoms: _100  and  _103
REMARK   46  A    between atoms: _103  and  _104
REMARK   47  A    between atoms: _106  and  _108
REMARK   48  A    between atoms: _108  and  _109
REMARK   49  A    between atoms: _108  and  _111
REMARK   50  A    between atoms: _111  and  _112
REMARK   51  A    between atoms: _114  and  _116
REMARK   52  A    between atoms: _116  and  _117
REMARK   53  A    between atoms: _116  and  _119
REMARK   54  A    between atoms: _119  and  _120
REMARK   55  A    between atoms: _125  and  _127
REMARK   56  A    between atoms: _127  and  _128
REMARK   57  A    between atoms: _127  and  _130
REMARK   58  A    between atoms: _130  and  _131
REMARK   59  A    between atoms: _136  and  _137
REMARK   60  A    between atoms: _139  and  _141
REMARK   61  A    between atoms: _141  and  _142
REMARK   62  A    between atoms: _141  and  _144
REMARK   63  A    between atoms: _148  and  _149
REMARK   64  A    between atoms: _154  and  _156
REMARK   65  A    between atoms: _156  and  _157
REMARK   66  A    between atoms: _156  and  _159
REMARK   67  A    between atoms: _159  and  _160
REMARK   68  A    between atoms: _165  and  _166
REMARK   69  A    between atoms: _168  and  _170
REMARK   70  A    between atoms: _170  and  _171
REMARK   71  A    between atoms: _170  and  _173
REMARK   72  A    between atoms: _173  and  _174
REMARK   73  A    between atoms: _177  and  _179
REMARK   74  A    between atoms: _179  and  _180
REMARK   75  A    between atoms: _179  and  _182
REMARK   76  A    between atoms: _182  and  _183
REMARK   77  A    between atoms: _183  and  _184
REMARK   78  A    between atoms: _189  and  _191
REMARK   79  A    between atoms: _191  and  _192
REMARK   80  A    between atoms: _194  and  _196
REMARK   81  A    between atoms: _196  and  _197
REMARK   82  A    between atoms: _196  and  _199
REMARK   83  A    between atoms: _199  and  _200
REMARK   84  A    between atoms: _200  and  _201
REMARK   85  A    between atoms: _201  and  _202
REMARK   86  A    between atoms: _202  and  _203
REMARK   87  A    between atoms: _207  and  _209
REMARK   88  A    between atoms: _209  and  _210
REMARK   89  A    between atoms: _209  and  _212
REMARK   90  A    between atoms: _212  and  _213
REMARK   91  A    between atoms: _223  and  _225
REMARK   92  A    between atoms: _225  and  _226
REMARK   93  A    between atoms: _225  and  _228
REMARK   94  A    between atoms: _228  and  _229
REMARK   95  A    between atoms: _232  and  _234
REMARK   96  A    between atoms: _234  and  _235
REMARK   97  A    between atoms: _234  and  _237
REMARK   98  A    between atoms: _237  and  _238
REMARK   99  A    between atoms: _238  and  _239
REMARK  100  A    between atoms: _239  and  _240
REMARK  101  A    between atoms: _240  and  _241
REMARK  102  A    between atoms: _245  and  _247
REMARK  103  A    between atoms: _247  and  _248
REMARK  104  A    between atoms: _247  and  _250
REMARK  105  A    between atoms: _250  and  _251
REMARK  106  A    between atoms: _257  and  _259
REMARK  107  A    between atoms: _259  and  _260
REMARK  108  A    between atoms: _259  and  _262
REMARK  109  A    between atoms: _262  and  _263
REMARK  110  A    between atoms: _269  and  _271
REMARK  111  A    between atoms: _271  and  _272
REMARK  112  A    between atoms: _271  and  _274
REMARK  113  A    between atoms: _274  and  _275
REMARK  114  A    between atoms: _278  and  _280
REMARK  115  A    between atoms: _280  and  _281
REMARK  116  A    between atoms: _280  and  _283
REMARK  117  A    between atoms: _283  and  _284
REMARK  118  A    between atoms: _289  and  _291
REMARK  119  A    between atoms: _291  and  _292
REMARK  120  A    between atoms: _291  and  _294
REMARK  121  A    between atoms: _294  and  _295
REMARK  122  A    between atoms: _297  and  _299
REMARK  123  A    between atoms: _299  and  _300
REMARK  124  A    between atoms: _299  and  _302
REMARK  125  A    between atoms: _302  and  _303
REMARK  126  A    between atoms: _313  and  _315
REMARK  127  A    between atoms: _315  and  _316
REMARK  128  A    between atoms: _318  and  _320
REMARK  129  A    between atoms: _320  and  _321
REMARK  130  A    between atoms: _320  and  _323
REMARK  131  A    between atoms: _323  and  _324
REMARK  132  A    between atoms: _327  and  _329
REMARK  133  A    between atoms: _329  and  _330
REMARK  134  A    between atoms: _329  and  _332
REMARK  135  A    between atoms: _332  and  _333
REMARK  136  A    between atoms: _336  and  _338
REMARK  137  A    between atoms: _338  and  _339
REMARK  138  A    between atoms: _341  and  _343
REMARK  139  A    between atoms: _343  and  _344
REMARK  140  A    between atoms: _343  and  _346
REMARK  141  A    between atoms: _346  and  _347
REMARK  142  A    between atoms: _350  and  _352
REMARK  143  A    between atoms: _352  and  _353
REMARK  144  A    between atoms: _356  and  _358
REMARK  145  A    between atoms: _358  and  _359
REMARK  146  A    between atoms: _358  and  _361
REMARK  147  A    between atoms: _361  and  _362
REMARK  148  A    between atoms: _367  and  _368
REMARK  149  A    between atoms: _370  and  _372
REMARK  150  A    between atoms: _372  and  _373
REMARK  151  A    between atoms: _372  and  _375
REMARK  152  A    between atoms: _375  and  _376
REMARK  153  A    between atoms: _376  and  _377
REMARK  154  A    between atoms: _380  and  _382
REMARK  155  A    between atoms: _382  and  _383
REMARK  156  A    between atoms: _382  and  _385
REMARK  157  A    between atoms: _385  and  _386
REMARK  158  A    between atoms: _389  and  _391
REMARK  159  A    between atoms: _391  and  _392
REMARK  160  A    between atoms: _395  and  _397
REMARK  161  A    between atoms: _397  and  _398
REMARK  162  A    between atoms: _397  and  _400
REMARK  163  A    between atoms: _400  and  _401
REMARK  164  A    between atoms: _401  and  _402
REMARK  165  A    between atoms: _402  and  _403
REMARK  166  A    between atoms: _412  and  _414
REMARK  167  A    between atoms: _414  and  _415
REMARK  168  A    between atoms: _414  and  _417
REMARK  169  A    between atoms: _417  and  _418
REMARK  170  A    between atoms: _421  and  _423
REMARK  171  A    between atoms: _423  and  _424
REMARK  172  A    between atoms: _423  and  _426
REMARK  173  A    between atoms: _429  and  _431
REMARK  174  A    between atoms: _431  and  _432
REMARK  175  A    between atoms: _431  and  _434
REMARK  176  A    between atoms: _434  and  _435
REMARK  177  A    between atoms: _445  and  _447
REMARK  178  A    between atoms: _447  and  _448
REMARK  179  A    between atoms: _447  and  _450
REMARK  180  A    between atoms: _450  and  _451
REMARK  181  A    between atoms: _456  and  _457
REMARK  182  A    between atoms: _459  and  _461
REMARK  183  A    between atoms: _461  and  _462
REMARK  184  A    between atoms: _461  and  _464
REMARK  185  A    between atoms: _464  and  _465
REMARK  186  A    between atoms: _470  and  _471
REMARK  187  A    between atoms: _473  and  _475
REMARK  188  A    between atoms: _475  and  _476
REMARK  189  A    between atoms: _475  and  _478
REMARK  190  A    between atoms: _478  and  _479
REMARK  191  A    between atoms: _482  and  _484
REMARK  192  A    between atoms: _484  and  _485
REMARK  193  A    between atoms: _484  and  _487
REMARK  194  A    between atoms: _487  and  _488
REMARK  195  A    between atoms: _488  and  _489
REMARK  196  A    between atoms: _489  and  _490
REMARK  197  A    between atoms: _490  and  _491
REMARK  198  A    between atoms: _495  and  _497
REMARK  199  A    between atoms: _497  and  _498
REMARK  200  A    between atoms: _497  and  _500
REMARK  201  A    between atoms: _500  and  _501
REMARK  202  A    between atoms: _504  and  _506
REMARK  203  A    between atoms: _506  and  _507
REMARK  204  A    between atoms: _506  and  _509
REMARK  205  A    between atoms: _512  and  _514
REMARK  206  A    between atoms: _514  and  _515
REMARK  207  A    between atoms: _514  and  _517
REMARK  208  A    between atoms: _517  and  _518
REMARK  209  A    between atoms: _521  and  _523
REMARK  210  A    between atoms: _523  and  _524
REMARK  211  A    between atoms: _523  and  _526
REMARK  212  A    between atoms: _526  and  _527
REMARK  213  A    between atoms: _529  and  _531
REMARK  214  A    between atoms: _531  and  _532
REMARK  215  A    between atoms: _534  and  _536
REMARK  216  A    between atoms: _536  and  _537
REMARK  217  A    between atoms: _536  and  _539
REMARK  218  A    between atoms: _539  and  _540
REMARK  219  A    between atoms: _543  and  _545
REMARK  220  A    between atoms: _545  and  _546
REMARK  221  A    between atoms: _545  and  _548
REMARK  222  A    between atoms: _548  and  _549
REMARK  223  A    between atoms: _552  and  _554
REMARK  224  A    between atoms: _554  and  _555
REMARK  225  A    between atoms: _554  and  _557
REMARK  226  A    between atoms: _557  and  _558
REMARK  227  A    between atoms: _563  and  _565
REMARK  228  A    between atoms: _565  and  _566
REMARK  229  A    between atoms: _565  and  _568
REMARK  230  A    between atoms: _568  and  _569
REMARK  231  A    between atoms: _572  and  _574
REMARK  232  A    between atoms: _574  and  _575
REMARK  233  A    between atoms: _574  and  _577
REMARK  234  A    between atoms: _577  and  _578
REMARK  235  A    between atoms: _578  and  _579
REMARK  236  A    between atoms: _579  and  _580
REMARK  237  A    between atoms: _589  and  _591
REMARK  238  A    between atoms: _591  and  _592
REMARK  239  A    between atoms: _591  and  _594
REMARK  240  A    between atoms: _594  and  _595
REMARK  241  A    between atoms: _598  and  _600
REMARK  242  A    between atoms: _600  and  _601
REMARK  243  A    between atoms: _600  and  _603
REMARK  244  A    between atoms: _603  and  _604
REMARK  245  A    between atoms: _604  and  _605
REMARK  246  A    between atoms: _605  and  _606
REMARK  247  A    between atoms: _615  and  _617
REMARK  248  A    between atoms: _617  and  _618
REMARK  249  A    between atoms: _617  and  _620
REMARK  250  A    between atoms: _620  and  _621
REMARK  251  A    between atoms: _621  and  _622
REMARK  252  A    between atoms: _622  and  _623
REMARK  253  A    between atoms: _623  and  _624
REMARK  254  A    between atoms: _628  and  _630
REMARK  255  A    between atoms: _630  and  _631
REMARK  256  A    between atoms: _630  and  _633
REMARK  257  A    between atoms: _633  and  _634
REMARK  258  A    between atoms: _640  and  _642
REMARK  259  A    between atoms: _642  and  _643
REMARK  260  A    between atoms: _646  and  _648
REMARK  261  A    between atoms: _648  and  _649
REMARK  262  A    between atoms: _648  and  _651
REMARK  263  A    between atoms: _651  and  _652
REMARK  264  A    between atoms: _655  and  _657
REMARK  265  A    between atoms: _657  and  _658
REMARK  266  A    between atoms: _657  and  _660
REMARK  267  A    between atoms: _660  and  _661
REMARK  268  A    between atoms: _663  and  _665
REMARK  269  A    between atoms: _665  and  _666
REMARK  270  A    between atoms: _665  and  _668
REMARK  271  A    between atoms: _668  and  _669
REMARK  272  A    between atoms: _669  and  _670
REMARK  273  A    between atoms: _675  and  _677
REMARK  274  A    between atoms: _677  and  _678
REMARK  275  A    between atoms: _677  and  _680
REMARK  276  A    between atoms: _680  and  _681
REMARK  277  A    between atoms: _683  and  _685
REMARK  278  A    between atoms: _685  and  _686
REMARK  279  A    between atoms: _685  and  _688
REMARK  280  A    between atoms: _688  and  _689
REMARK  281  A    between atoms: _691  and  _693
REMARK  282  A    between atoms: _693  and  _694
REMARK  283  A    between atoms: _693  and  _696
REMARK  284  A    between atoms: _696  and  _697
REMARK  285  A    between atoms: _700  and  _702
REMARK  286  A    between atoms: _702  and  _703
REMARK  287  A    between atoms: _705  and  _707
REMARK  288  A    between atoms: _707  and  _708
REMARK  289  A    between atoms: _707  and  _710
REMARK  290  A    between atoms: _710  and  _711
REMARK  291  A    between atoms: _714  and  _716
REMARK  292  A    between atoms: _716  and  _717
REMARK  293  A    between atoms: _716  and  _719
REMARK  294  A    between atoms: _722  and  _724
REMARK  295  A    between atoms: _724  and  _725
REMARK  296  A    between atoms: _724  and  _727
REMARK  297  A    between atoms: _727  and  _728
REMARK  298  A    between atoms: _728  and  _729
REMARK  299  A    between atoms: _731  and  _733
REMARK  300  A    between atoms: _733  and  _734
REMARK  301  A    between atoms: _736  and  _738
REMARK  302  A    between atoms: _738  and  _739
REMARK  303  A    between atoms: _742  and  _744
REMARK  304  A    between atoms: _744  and  _745
REMARK  305  A    between atoms: _744  and  _747
REMARK  306  A    between atoms: _750  and  _752
REMARK  307  A    between atoms: _752  and  _753
REMARK  308  A    between atoms: _752  and  _755
REMARK  309  A    between atoms: _755  and  _756
REMARK  310  A    between atoms: _756  and  _757
REMARK                            x       y       z     vdW  Elec       q    Type
REMARK                         _______ _______ _______ _____ _____    ______ ____
ROOT
ATOM      1  O   HOH     1      -2.627  19.262  21.171  0.00  0.00    +0.000 OA
ENDROOT
TORSDOF 0
REMARK  Name = ../refined-set-2016/3i25/3i25_pocket.pdb
REMARK  310 active torsions:
REMARK  status: ('A' for Active; 'I' for Inactive)
REMARK    1  A    between atoms: _1  and  _3
REMARK    2  A    between atoms: _3  and  _4
REMARK    3  A    between atoms: _3  and  _6
REMARK    4  A    between atoms: _6  and  _7
REMARK    5  A    between atoms: _7  and  _8
REMARK    6  A    between atoms: _8  and  _9
REMARK    7  A    between atoms: _9  and  _10
REMARK    8  A    between atoms: _14  and  _16
REMARK    9  A    between atoms: _16  and  _17
REMARK   10  A    between atoms: _16  and  _19
REMARK   11  A    between atoms: _19  and  _20
REMARK   12  A    between atoms: _22  and  _24
REMARK   13  A    between atoms: _24  and  _25
REMARK   14  A    between atoms: _27  and  _29
REMARK   15  A    between atoms: _29  and  _30
REMARK   16  A    between atoms: _29  and  _32
REMARK   17  A    between atoms: _32  and  _33
REMARK   18  A    between atoms: _33  and  _34
REMARK   19  A    between atoms: _39  and  _41
REMARK   20  A    between atoms: _41  and  _42
REMARK   21  A    between atoms: _44  and  _46
REMARK   22  A    between atoms: _46  and  _47
REMARK   23  A    between atoms: _46  and  _49
REMARK   24  A    between atoms: _49  and  _50
REMARK   25  A    between atoms: _55  and  _56
REMARK   26  A    between atoms: _58  and  _60
REMARK   27  A    between atoms: _60  and  _61
REMARK   28  A    between atoms: _60  and  _63
REMARK   29  A    between atoms: _63  and  _64
REMARK   30  A    between atoms: _67  and  _69
REMARK   31  A    between atoms: _69  and  _70
REMARK   32  A    between atoms: _69  and  _72
REMARK   33  A    between atoms: _75  and  _77
REMARK   34  A    between atoms: _77  and  _78
REMARK   35  A    between atoms: _77  and  _80
REMARK   36  A    between atoms: _80  and  _81
REMARK   37  A    between atoms: _84  and  _86
REMARK   38  A    between atoms: _86  and  _87
REMARK   39  A    between atoms: _86  and  _89
REMARK   40  A    between atoms: _89  and  _90
REMARK   41  A    between atoms: _93  and  _95
REMARK   42  A    between atoms: _95  and  _96
REMARK   43  A    between atoms: _98  and  _100
REMARK   44  A    between atoms: _100  and  _101
REMARK   45  A    between atoms: _100  and  _103
REMARK   46  A    between atoms: _103  and  _104
REMARK   47  A    between atoms: _106  and  _108
REMARK   48  A    between atoms: _108  and  _109
REMARK   49  A    between atoms: _108  and  _111
REMARK   50  A    between atoms: _111  and  _112
REMARK   51  A    between atoms: _114  and  _116
REMARK   52  A    between atoms: _116  and  _117
REMARK   53  A    between atoms: _116  and  _119
REMARK   54  A    between atoms: _119  and  _120
REMARK   55  A    between atoms: _125  and  _127
REMARK   56  A    between atoms: _127  and  _128
REMARK   57  A    between atoms: _127  and  _130
REMARK   58  A    between atoms: _130  and  _131
REMARK   59  A    between atoms: _136  and  _137
REMARK   60  A    between atoms: _139  and  _141
REMARK   61  A    between atoms: _141  and  _142
REMARK   62  A    between atoms: _141  and  _144
REMARK   63  A    between atoms: _148  and  _149
REMARK   64  A    between atoms: _154  and  _156
REMARK   65  A    between atoms: _156  and  _157
REMARK   66  A    between atoms: _156  and  _159
REMARK   67  A    between atoms: _159  and  _160
REMARK   68  A    between atoms: _165  and  _166
REMARK   69  A    between atoms: _168  and  _170
REMARK   70  A    between atoms: _170  and  _171
REMARK   71  A    between atoms: _170  and  _173
REMARK   72  A    between atoms: _173  and  _174
REMARK   73  A    between atoms: _177  and  _179
REMARK   74  A    between atoms: _179  and  _180
REMARK   75  A    between atoms: _179  and  _182
REMARK   76  A    between atoms: _182  and  _183
REMARK   77  A    between atoms: _183  and  _184
REMARK   78  A    between atoms: _189  and  _191
REMARK   79  A    between atoms: _191  and  _192
REMARK   80  A    between atoms: _194  and  _196
REMARK   81  A    between atoms: _196  and  _197
REMARK   82  A    between atoms: _196  and  _199
REMARK   83  A    between atoms: _199  and  _200
REMARK   84  A    between atoms: _200  and  _201
REMARK   85  A    between atoms: _201  and  _202
REMARK   86  A    between atoms: _202  and  _203
REMARK   87  A    between atoms: _207  and  _209
REMARK   88  A    between atoms: _209  and  _210
REMARK   89  A    between atoms: _209  and  _212
REMARK   90  A    between atoms: _212  and  _213
REMARK   91  A    between atoms: _223  and  _225
REMARK   92  A    between atoms: _225  and  _226
REMARK   93  A    between atoms: _225  and  _228
REMARK   94  A    between atoms: _228  and  _229
REMARK   95  A    between atoms: _232  and  _234
REMARK   96  A    between atoms: _234  and  _235
REMARK   97  A    between atoms: _234  and  _237
REMARK   98  A    between atoms: _237  and  _238
REMARK   99  A    between atoms: _238  and  _239
REMARK  100  A    between atoms: _239  and  _240
REMARK  101  A    between atoms: _240  and  _241
REMARK  102  A    between atoms: _245  and  _247
REMARK  103  A    between atoms: _247  and  _248
REMARK  104  A    between atoms: _247  and  _250
REMARK  105  A    between atoms: _250  and  _251
REMARK  106  A    between atoms: _257  and  _259
REMARK  107  A    between atoms: _259  and  _260
REMARK  108  A    between atoms: _259  and  _262
REMARK  109  A    between atoms: _262  and  _263
REMARK  110  A    between atoms: _269  and  _271
REMARK  111  A    between atoms: _271  and  _272
REMARK  112  A    between atoms: _271  and  _274
REMARK  113  A    between atoms: _274  and  _275
REMARK  114  A    between atoms: _278  and  _280
REMARK  115  A    between atoms: _280  and  _281
REMARK  116  A    between atoms: _280  and  _283
REMARK  117  A    between atoms: _283  and  _284
REMARK  118  A    between atoms: _289  and  _291
REMARK  119  A    between atoms: _291  and  _292
REMARK  120  A    between atoms: _291  and  _294
REMARK  121  A    between atoms: _294  and  _295
REMARK  122  A    between atoms: _297  and  _299
REMARK  123  A    between atoms: _299  and  _300
REMARK  124  A    between atoms: _299  and  _302
REMARK  125  A    between atoms: _302  and  _303
REMARK  126  A    between atoms: _313  and  _315
REMARK  127  A    between atoms: _315  and  _316
REMARK  128  A    between atoms: _318  and  _320
REMARK  129  A    between atoms: _320  and  _321
REMARK  130  A    between atoms: _320  and  _323
REMARK  131  A    between atoms: _323  and  _324
REMARK  132  A    between atoms: _327  and  _329
REMARK  133  A    between atoms: _329  and  _330
REMARK  134  A    between atoms: _329  and  _332
REMARK  135  A    between atoms: _332  and  _333
REMARK  136  A    between atoms: _336  and  _338
REMARK  137  A    between atoms: _338  and  _339
REMARK  138  A    between atoms: _341  and  _343
REMARK  139  A    between atoms: _343  and  _344
REMARK  140  A    between atoms: _343  and  _346
REMARK  141  A    between atoms: _346  and  _347
REMARK  142  A    between atoms: _350  and  _352
REMARK  143  A    between atoms: _352  and  _353
REMARK  144  A    between atoms: _356  and  _358
REMARK  145  A    between atoms: _358  and  _359
REMARK  146  A    between atoms: _358  and  _361
REMARK  147  A    between atoms: _361  and  _362
REMARK  148  A    between atoms: _367  and  _368
REMARK  149  A    between atoms: _370  and  _372
REMARK  150  A    between atoms: _372  and  _373
REMARK  151  A    between atoms: _372  and  _375
REMARK  152  A    between atoms: _375  and  _376
REMARK  153  A    between atoms: _376  and  _377
REMARK  154  A    between atoms: _380  and  _382
REMARK  155  A    between atoms: _382  and  _383
REMARK  156  A    between atoms: _382  and  _385
REMARK  157  A    between atoms: _385  and  _386
REMARK  158  A    between atoms: _389  and  _391
REMARK  159  A    between atoms: _391  and  _392
REMARK  160  A    between atoms: _395  and  _397
REMARK  161  A    between atoms: _397  and  _398
REMARK  162  A    between atoms: _397  and  _400
REMARK  163  A    between atoms: _400  and  _401
REMARK  164  A    between atoms: _401  and  _402
REMARK  165  A    between atoms: _402  and  _403
REMARK  166  A    between atoms: _412  and  _414
REMARK  167  A    between atoms: _414  and  _415
REMARK  168  A    between atoms: _414  and  _417
REMARK  169  A    between atoms: _417  and  _418
REMARK  170  A    between atoms: _421  and  _423
REMARK  171  A    between atoms: _423  and  _424
REMARK  172  A    between atoms: _423  and  _426
REMARK  173  A    between atoms: _429  and  _431
REMARK  174  A    between atoms: _431  and  _432
REMARK  175  A    between atoms: _431  and  _434
REMARK  176  A    between atoms: _434  and  _435
REMARK  177  A    between atoms: _445  and  _447
REMARK  178  A    between atoms: _447  and  _448
REMARK  179  A    between atoms: _447  and  _450
REMARK  180  A    between atoms: _450  and  _451
REMARK  181  A    between atoms: _456  and  _457
REMARK  182  A    between atoms: _459  and  _461
REMARK  183  A    between atoms: _461  and  _462
REMARK  184  A    between atoms: _461  and  _464
REMARK  185  A    between atoms: _464  and  _465
REMARK  186  A    between atoms: _470  and  _471
REMARK  187  A    between atoms: _473  and  _475
REMARK  188  A    between atoms: _475  and  _476
REMARK  189  A    between atoms: _475  and  _478
REMARK  190  A    between atoms: _478  and  _479
REMARK  191  A    between atoms: _482  and  _484
REMARK  192  A    between atoms: _484  and  _485
REMARK  193  A    between atoms: _484  and  _487
REMARK  194  A    between atoms: _487  and  _488
REMARK  195  A    between atoms: _488  and  _489
REMARK  196  A    between atoms: _489  and  _490
REMARK  197  A    between atoms: _490  and  _491
REMARK  198  A    between atoms: _495  and  _497
REMARK  199  A    between atoms: _497  and  _498
REMARK  200  A    between atoms: _497  and  _500
REMARK  201  A    between atoms: _500  and  _501
REMARK  202  A    between atoms: _504  and  _506
REMARK  203  A    between atoms: _506  and  _507
REMARK  204  A    between atoms: _506  and  _509
REMARK  205  A    between atoms: _512  and  _514
REMARK  206  A    between atoms: _514  and  _515
REMARK  207  A    between atoms: _514  and  _517
REMARK  208  A    between atoms: _517  and  _518
REMARK  209  A    between atoms: _521  and  _523
REMARK  210  A    between atoms: _523  and  _524
REMARK  211  A    between atoms: _523  and  _526
REMARK  212  A    between atoms: _526  and  _527
REMARK  213  A    between atoms: _529  and  _531
REMARK  214  A    between atoms: _531  and  _532
REMARK  215  A    between atoms: _534  and  _536
REMARK  216  A    between atoms: _536  and  _537
REMARK  217  A    between atoms: _536  and  _539
REMARK  218  A    between atoms: _539  and  _540
REMARK  219  A    between atoms: _543  and  _545
REMARK  220  A    between atoms: _545  and  _546
REMARK  221  A    between atoms: _545  and  _548
REMARK  222  A    between atoms: _548  and  _549
REMARK  223  A    between atoms: _552  and  _554
REMARK  224  A    between atoms: _554  and  _555
REMARK  225  A    between atoms: _554  and  _557
REMARK  226  A    between atoms: _557  and  _558
REMARK  227  A    between atoms: _563  and  _565
REMARK  228  A    between atoms: _565  and  _566
REMARK  229  A    between atoms: _565  and  _568
REMARK  230  A    between atoms: _568  and  _569
REMARK  231  A    between atoms: _572  and  _574
REMARK  232  A    between atoms: _574  and  _575
REMARK  233  A    between atoms: _574  and  _577
REMARK  234  A    between atoms: _577  and  _578
REMARK  235  A    between atoms: _578  and  _579
REMARK  236  A    between atoms: _579  and  _580
REMARK  237  A    between atoms: _589  and  _591
REMARK  238  A    between atoms: _591  and  _592
REMARK  239  A    between atoms: _591  and  _594
REMARK  240  A    between atoms: _594  and  _595
REMARK  241  A    between atoms: _598  and  _600
REMARK  242  A    between atoms: _600  and  _601
REMARK  243  A    between atoms: _600  and  _603
REMARK  244  A    between atoms: _603  and  _604
REMARK  245  A    between atoms: _604  and  _605
REMARK  246  A    between atoms: _605  and  _606
REMARK  247  A    between atoms: _615  and  _617
REMARK  248  A    between atoms: _617  and  _618
REMARK  249  A    between atoms: _617  and  _620
REMARK  250  A    between atoms: _620  and  _621
REMARK  251  A    between atoms: _621  and  _622
REMARK  252  A    between atoms: _622  and  _623
REMARK  253  A    between atoms: _623  and  _624
REMARK  254  A    between atoms: _628  and  _630
REMARK  255  A    between atoms: _630  and  _631
REMARK  256  A    between atoms: _630  and  _633
REMARK  257  A    between atoms: _633  and  _634
REMARK  258  A    between atoms: _640  and  _642
REMARK  259  A    between atoms: _642  and  _643
REMARK  260  A    between atoms: _646  and  _648
REMARK  261  A    between atoms: _648  and  _649
REMARK  262  A    between atoms: _648  and  _651
REMARK  263  A    between atoms: _651  and  _652
REMARK  264  A    between atoms: _655  and  _657
REMARK  265  A    between atoms: _657  and  _658
REMARK  266  A    between atoms: _657  and  _660
REMARK  267  A    between atoms: _660  and  _661
REMARK  268  A    between atoms: _663  and  _665
REMARK  269  A    between atoms: _665  and  _666
REMARK  270  A    between atoms: _665  and  _668
REMARK  271  A    between atoms: _668  and  _669
REMARK  272  A    between atoms: _669  and  _670
REMARK  273  A    between atoms: _675  and  _677
REMARK  274  A    between atoms: _677  and  _678
REMARK  275  A    between atoms: _677  and  _680
REMARK  276  A    between atoms: _680  and  _681
REMARK  277  A    between atoms: _683  and  _685
REMARK  278  A    between atoms: _685  and  _686
REMARK  279  A    between atoms: _685  and  _688
REMARK  280  A    between atoms: _688  and  _689
REMARK  281  A    between atoms: _691  and  _693
REMARK  282  A    between atoms: _693  and  _694
REMARK  283  A    between atoms: _693  and  _696
REMARK  284  A    between atoms: _696  and  _697
REMARK  285  A    between atoms: _700  and  _702
REMARK  286  A    between atoms: _702  and  _703
REMARK  287  A    between atoms: _705  and  _707
REMARK  288  A    between atoms: _707  and  _708
REMARK  289  A    between atoms: _707  and  _710
REMARK  290  A    between atoms: _710  and  _711
REMARK  291  A    between atoms: _714  and  _716
REMARK  292  A    between atoms: _716  and  _717
REMARK  293  A    between atoms: _716  and  _719
REMARK  294  A    between atoms: _722  and  _724
REMARK  295  A    between atoms: _724  and  _725
REMARK  296  A    between atoms: _724  and  _727
REMARK  297  A    between atoms: _727  and  _728
REMARK  298  A    between atoms: _728  and  _729
REMARK  299  A    between atoms: _731  and  _733
REMARK  300  A    between atoms: _733  and  _734
REMARK  301  A    between atoms: _736  and  _738
REMARK  302  A    between atoms: _738  and  _739
REMARK  303  A    between atoms: _742  and  _744
REMARK  304  A    between atoms: _744  and  _745
REMARK  305  A    between atoms: _744  and  _747
REMARK  306  A    between atoms: _750  and  _752
REMARK  307  A    between atoms: _752  and  _753
REMARK  308  A    between atoms: _752  and  _755
REMARK  309  A    between atoms: _755  and  _756
REMARK  310  A    between atoms: _756  and  _757
REMARK                            x       y       z     vdW  Elec       q    Type
REMARK                         _______ _______ _______ _____ _____    ______ ____
ROOT
ATOM      1  O   HOH     1      12.963  12.207  28.094  0.00  0.00    +0.000 OA
ENDROOT
TORSDOF 0
REMARK  Name = ../refined-set-2016/3i25/3i25_pocket.pdb
REMARK  310 active torsions:
REMARK  status: ('A' for Active; 'I' for Inactive)
REMARK    1  A    between atoms: _1  and  _3
REMARK    2  A    between atoms: _3  and  _4
REMARK    3  A    between atoms: _3  and  _6
REMARK    4  A    between atoms: _6  and  _7
REMARK    5  A    between atoms: _7  and  _8
REMARK    6  A    between atoms: _8  and  _9
REMARK    7  A    between atoms: _9  and  _10
REMARK    8  A    between atoms: _14  and  _16
REMARK    9  A    between atoms: _16  and  _17
REMARK   10  A    between atoms: _16  and  _19
REMARK   11  A    between atoms: _19  and  _20
REMARK   12  A    between atoms: _22  and  _24
REMARK   13  A    between atoms: _24  and  _25
REMARK   14  A    between atoms: _27  and  _29
REMARK   15  A    between atoms: _29  and  _30
REMARK   16  A    between atoms: _29  and  _32
REMARK   17  A    between atoms: _32  and  _33
REMARK   18  A    between atoms: _33  and  _34
REMARK   19  A    between atoms: _39  and  _41
REMARK   20  A    between atoms: _41  and  _42
REMARK   21  A    between atoms: _44  and  _46
REMARK   22  A    between atoms: _46  and  _47
REMARK   23  A    between atoms: _46  and  _49
REMARK   24  A    between atoms: _49  and  _50
REMARK   25  A    between atoms: _55  and  _56
REMARK   26  A    between atoms: _58  and  _60
REMARK   27  A    between atoms: _60  and  _61
REMARK   28  A    between atoms: _60  and  _63
REMARK   29  A    between atoms: _63  and  _64
REMARK   30  A    between atoms: _67  and  _69
REMARK   31  A    between atoms: _69  and  _70
REMARK   32  A    between atoms: _69  and  _72
REMARK   33  A    between atoms: _75  and  _77
REMARK   34  A    between atoms: _77  and  _78
REMARK   35  A    between atoms: _77  and  _80
REMARK   36  A    between atoms: _80  and  _81
REMARK   37  A    between atoms: _84  and  _86
REMARK   38  A    between atoms: _86  and  _87
REMARK   39  A    between atoms: _86  and  _89
REMARK   40  A    between atoms: _89  and  _90
REMARK   41  A    between atoms: _93  and  _95
REMARK   42  A    between atoms: _95  and  _96
REMARK   43  A    between atoms: _98  and  _100
REMARK   44  A    between atoms: _100  and  _101
REMARK   45  A    between atoms: _100  and  _103
REMARK   46  A    between atoms: _103  and  _104
REMARK   47  A    between atoms: _106  and  _108
REMARK   48  A    between atoms: _108  and  _109
REMARK   49  A    between atoms: _108  and  _111
REMARK   50  A    between atoms: _111  and  _112
REMARK   51  A    between atoms: _114  and  _116
REMARK   52  A    between atoms: _116  and  _117
REMARK   53  A    between atoms: _116  and  _119
REMARK   54  A    between atoms: _119  and  _120
REMARK   55  A    between atoms: _125  and  _127
REMARK   56  A    between atoms: _127  and  _128
REMARK   57  A    between atoms: _127  and  _130
REMARK   58  A    between atoms: _130  and  _131
REMARK   59  A    between atoms: _136  and  _137
REMARK   60  A    between atoms: _139  and  _141
REMARK   61  A    between atoms: _141  and  _142
REMARK   62  A    between atoms: _141  and  _144
REMARK   63  A    between atoms: _148  and  _149
REMARK   64  A    between atoms: _154  and  _156
REMARK   65  A    between atoms: _156  and  _157
REMARK   66  A    between atoms: _156  and  _159
REMARK   67  A    between atoms: _159  and  _160
REMARK   68  A    between atoms: _165  and  _166
REMARK   69  A    between atoms: _168  and  _170
REMARK   70  A    between atoms: _170  and  _171
REMARK   71  A    between atoms: _170  and  _173
REMARK   72  A    between atoms: _173  and  _174
REMARK   73  A    between atoms: _177  and  _179
REMARK   74  A    between atoms: _179  and  _180
REMARK   75  A    between atoms: _179  and  _182
REMARK   76  A    between atoms: _182  and  _183
REMARK   77  A    between atoms: _183  and  _184
REMARK   78  A    between atoms: _189  and  _191
REMARK   79  A    between atoms: _191  and  _192
REMARK   80  A    between atoms: _194  and  _196
REMARK   81  A    between atoms: _196  and  _197
REMARK   82  A    between atoms: _196  and  _199
REMARK   83  A    between atoms: _199  and  _200
REMARK   84  A    between atoms: _200  and  _201
REMARK   85  A    between atoms: _201  and  _202
REMARK   86  A    between atoms: _202  and  _203
REMARK   87  A    between atoms: _207  and  _209
REMARK   88  A    between atoms: _209  and  _210
REMARK   89  A    between atoms: _209  and  _212
REMARK   90  A    between atoms: _212  and  _213
REMARK   91  A    between atoms: _223  and  _225
REMARK   92  A    between atoms: _225  and  _226
REMARK   93  A    between atoms: _225  and  _228
REMARK   94  A    between atoms: _228  and  _229
REMARK   95  A    between atoms: _232  and  _234
REMARK   96  A    between atoms: _234  and  _235
REMARK   97  A    between atoms: _234  and  _237
REMARK   98  A    between atoms: _237  and  _238
REMARK   99  A    between atoms: _238  and  _239
REMARK  100  A    between atoms: _239  and  _240
REMARK  101  A    between atoms: _240  and  _241
REMARK  102  A    between atoms: _245  and  _247
REMARK  103  A    between atoms: _247  and  _248
REMARK  104  A    between atoms: _247  and  _250
REMARK  105  A    between atoms: _250  and  _251
REMARK  106  A    between atoms: _257  and  _259
REMARK  107  A    between atoms: _259  and  _260
REMARK  108  A    between atoms: _259  and  _262
REMARK  109  A    between atoms: _262  and  _263
REMARK  110  A    between atoms: _269  and  _271
REMARK  111  A    between atoms: _271  and  _272
REMARK  112  A    between atoms: _271  and  _274
REMARK  113  A    between atoms: _274  and  _275
REMARK  114  A    between atoms: _278  and  _280
REMARK  115  A    between atoms: _280  and  _281
REMARK  116  A    between atoms: _280  and  _283
REMARK  117  A    between atoms: _283  and  _284
REMARK  118  A    between atoms: _289  and  _291
REMARK  119  A    between atoms: _291  and  _292
REMARK  120  A    between atoms: _291  and  _294
REMARK  121  A    between atoms: _294  and  _295
REMARK  122  A    between atoms: _297  and  _299
REMARK  123  A    between atoms: _299  and  _300
REMARK  124  A    between atoms: _299  and  _302
REMARK  125  A    between atoms: _302  and  _303
REMARK  126  A    between atoms: _313  and  _315
REMARK  127  A    between atoms: _315  and  _316
REMARK  128  A    between atoms: _318  and  _320
REMARK  129  A    between atoms: _320  and  _321
REMARK  130  A    between atoms: _320  and  _323
REMARK  131  A    between atoms: _323  and  _324
REMARK  132  A    between atoms: _327  and  _329
REMARK  133  A    between atoms: _329  and  _330
REMARK  134  A    between atoms: _329  and  _332
REMARK  135  A    between atoms: _332  and  _333
REMARK  136  A    between atoms: _336  and  _338
REMARK  137  A    between atoms: _338  and  _339
REMARK  138  A    between atoms: _341  and  _343
REMARK  139  A    between atoms: _343  and  _344
REMARK  140  A    between atoms: _343  and  _346
REMARK  141  A    between atoms: _346  and  _347
REMARK  142  A    between atoms: _350  and  _352
REMARK  143  A    between atoms: _352  and  _353
REMARK  144  A    between atoms: _356  and  _358
REMARK  145  A    between atoms: _358  and  _359
REMARK  146  A    between atoms: _358  and  _361
REMARK  147  A    between atoms: _361  and  _362
REMARK  148  A    between atoms: _367  and  _368
REMARK  149  A    between atoms: _370  and  _372
REMARK  150  A    between atoms: _372  and  _373
REMARK  151  A    between atoms: _372  and  _375
REMARK  152  A    between atoms: _375  and  _376
REMARK  153  A    between atoms: _376  and  _377
REMARK  154  A    between atoms: _380  and  _382
REMARK  155  A    between atoms: _382  and  _383
REMARK  156  A    between atoms: _382  and  _385
REMARK  157  A    between atoms: _385  and  _386
REMARK  158  A    between atoms: _389  and  _391
REMARK  159  A    between atoms: _391  and  _392
REMARK  160  A    between atoms: _395  and  _397
REMARK  161  A    between atoms: _397  and  _398
REMARK  162  A    between atoms: _397  and  _400
REMARK  163  A    between atoms: _400  and  _401
REMARK  164  A    between atoms: _401  and  _402
REMARK  165  A    between atoms: _402  and  _403
REMARK  166  A    between atoms: _412  and  _414
REMARK  167  A    between atoms: _414  and  _415
REMARK  168  A    between atoms: _414  and  _417
REMARK  169  A    between atoms: _417  and  _418
REMARK  170  A    between atoms: _421  and  _423
REMARK  171  A    between atoms: _423  and  _424
REMARK  172  A    between atoms: _423  and  _426
REMARK  173  A    between atoms: _429  and  _431
REMARK  174  A    between atoms: _431  and  _432
REMARK  175  A    between atoms: _431  and  _434
REMARK  176  A    between atoms: _434  and  _435
REMARK  177  A    between atoms: _445  and  _447
REMARK  178  A    between atoms: _447  and  _448
REMARK  179  A    between atoms: _447  and  _450
REMARK  180  A    between atoms: _450  and  _451
REMARK  181  A    between atoms: _456  and  _457
REMARK  182  A    between atoms: _459  and  _461
REMARK  183  A    between atoms: _461  and  _462
REMARK  184  A    between atoms: _461  and  _464
REMARK  185  A    between atoms: _464  and  _465
REMARK  186  A    between atoms: _470  and  _471
REMARK  187  A    between atoms: _473  and  _475
REMARK  188  A    between atoms: _475  and  _476
REMARK  189  A    between atoms: _475  and  _478
REMARK  190  A    between atoms: _478  and  _479
REMARK  191  A    between atoms: _482  and  _484
REMARK  192  A    between atoms: _484  and  _485
REMARK  193  A    between atoms: _484  and  _487
REMARK  194  A    between atoms: _487  and  _488
REMARK  195  A    between atoms: _488  and  _489
REMARK  196  A    between atoms: _489  and  _490
REMARK  197  A    between atoms: _490  and  _491
REMARK  198  A    between atoms: _495  and  _497
REMARK  199  A    between atoms: _497  and  _498
REMARK  200  A    between atoms: _497  and  _500
REMARK  201  A    between atoms: _500  and  _501
REMARK  202  A    between atoms: _504  and  _506
REMARK  203  A    between atoms: _506  and  _507
REMARK  204  A    between atoms: _506  and  _509
REMARK  205  A    between atoms: _512  and  _514
REMARK  206  A    between atoms: _514  and  _515
REMARK  207  A    between atoms: _514  and  _517
REMARK  208  A    between atoms: _517  and  _518
REMARK  209  A    between atoms: _521  and  _523
REMARK  210  A    between atoms: _523  and  _524
REMARK  211  A    between atoms: _523  and  _526
REMARK  212  A    between atoms: _526  and  _527
REMARK  213  A    between atoms: _529  and  _531
REMARK  214  A    between atoms: _531  and  _532
REMARK  215  A    between atoms: _534  and  _536
REMARK  216  A    between atoms: _536  and  _537
REMARK  217  A    between atoms: _536  and  _539
REMARK  218  A    between atoms: _539  and  _540
REMARK  219  A    between atoms: _543  and  _545
REMARK  220  A    between atoms: _545  and  _546
REMARK  221  A    between atoms: _545  and  _548
REMARK  222  A    between atoms: _548  and  _549
REMARK  223  A    between atoms: _552  and  _554
REMARK  224  A    between atoms: _554  and  _555
REMARK  225  A    between atoms: _554  and  _557
REMARK  226  A    between atoms: _557  and  _558
REMARK  227  A    between atoms: _563  and  _565
REMARK  228  A    between atoms: _565  and  _566
REMARK  229  A    between atoms: _565  and  _568
REMARK  230  A    between atoms: _568  and  _569
REMARK  231  A    between atoms: _572  and  _574
REMARK  232  A    between atoms: _574  and  _575
REMARK  233  A    between atoms: _574  and  _577
REMARK  234  A    between atoms: _577  and  _578
REMARK  235  A    between atoms: _578  and  _579
REMARK  236  A    between atoms: _579  and  _580
REMARK  237  A    between atoms: _589  and  _591
REMARK  238  A    between atoms: _591  and  _592
REMARK  239  A    between atoms: _591  and  _594
REMARK  240  A    between atoms: _594  and  _595
REMARK  241  A    between atoms: _598  and  _600
REMARK  242  A    between atoms: _600  and  _601
REMARK  243  A    between atoms: _600  and  _603
REMARK  244  A    between atoms: _603  and  _604
REMARK  245  A    between atoms: _604  and  _605
REMARK  246  A    between atoms: _605  and  _606
REMARK  247  A    between atoms: _615  and  _617
REMARK  248  A    between atoms: _617  and  _618
REMARK  249  A    between atoms: _617  and  _620
REMARK  250  A    between atoms: _620  and  _621
REMARK  251  A    between atoms: _621  and  _622
REMARK  252  A    between atoms: _622  and  _623
REMARK  253  A    between atoms: _623  and  _624
REMARK  254  A    between atoms: _628  and  _630
REMARK  255  A    between atoms: _630  and  _631
REMARK  256  A    between atoms: _630  and  _633
REMARK  257  A    between atoms: _633  and  _634
REMARK  258  A    between atoms: _640  and  _642
REMARK  259  A    between atoms: _642  and  _643
REMARK  260  A    between atoms: _646  and  _648
REMARK  261  A    between atoms: _648  and  _649
REMARK  262  A    between atoms: _648  and  _651
REMARK  263  A    between atoms: _651  and  _652
REMARK  264  A    between atoms: _655  and  _657
REMARK  265  A    between atoms: _657  and  _658
REMARK  266  A    between atoms: _657  and  _660
REMARK  267  A    between atoms: _660  and  _661
REMARK  268  A    between atoms: _663  and  _665
REMARK  269  A    between atoms: _665  and  _666
REMARK  270  A    between atoms: _665  and  _668
REMARK  271  A    between atoms: _668  and  _669
REMARK  272  A    between atoms: _669  and  _670
REMARK  273  A    between atoms: _675  and  _677
REMARK  274  A    between atoms: _677  and  _678
REMARK  275  A    between atoms: _677  and  _680
REMARK  276  A    between atoms: _680  and  _681
REMARK  277  A    between atoms: _683  and  _685
REMARK  278  A    between atoms: _685  and  _686
REMARK  279  A    between atoms: _685  and  _688
REMARK  280  A    between atoms: _688  and  _689
REMARK  281  A    between atoms: _691  and  _693
REMARK  282  A    between atoms: _693  and  _694
REMARK  283  A    between atoms: _693  and  _696
REMARK  284  A    between atoms: _696  and  _697
REMARK  285  A    between atoms: _700  and  _702
REMARK  286  A    between atoms: _702  and  _703
REMARK  287  A    between atoms: _705  and  _707
REMARK  288  A    between atoms: _707  and  _708
REMARK  289  A    between atoms: _707  and  _710
REMARK  290  A    between atoms: _710  and  _711
REMARK  291  A    between atoms: _714  and  _716
REMARK  292  A    between atoms: _716  and  _717
REMARK  293  A    between atoms: _716  and  _719
REMARK  294  A    between atoms: _722  and  _724
REMARK  295  A    between atoms: _724  and  _725
REMARK  296  A    between atoms: _724  and  _727
REMARK  297  A    between atoms: _727  and  _728
REMARK  298  A    between atoms: _728  and  _729
REMARK  299  A    between atoms: _731  and  _733
REMARK  300  A    between atoms: _733  and  _734
REMARK  301  A    between atoms: _736  and  _738
REMARK  302  A    between atoms: _738  and  _739
REMARK  303  A    between atoms: _742  and  _744
REMARK  304  A    between atoms: _744  and  _745
REMARK  305  A    between atoms: _744  and  _747
REMARK  306  A    between atoms: _750  and  _752
REMARK  307  A    between atoms: _752  and  _753
REMARK  308  A    between atoms: _752  and  _755
REMARK  309  A    between atoms: _755  and  _756
REMARK  310  A    between atoms: _756  and  _757
REMARK                            x       y       z     vdW  Elec       q    Type
REMARK                         _______ _______ _______ _____ _____    ______ ____
ROOT
ATOM      1  O   HOH     1      -8.725  16.463  40.516  0.00  0.00    +0.000 OA
ENDROOT
TORSDOF 0
REMARK  Name = ../refined-set-2016/3i25/3i25_pocket.pdb
REMARK  310 active torsions:
REMARK  status: ('A' for Active; 'I' for Inactive)
REMARK    1  A    between atoms: _1  and  _3
REMARK    2  A    between atoms: _3  and  _4
REMARK    3  A    between atoms: _3  and  _6
REMARK    4  A    between atoms: _6  and  _7
REMARK    5  A    between atoms: _7  and  _8
REMARK    6  A    between atoms: _8  and  _9
REMARK    7  A    between atoms: _9  and  _10
REMARK    8  A    between atoms: _14  and  _16
REMARK    9  A    between atoms: _16  and  _17
REMARK   10  A    between atoms: _16  and  _19
REMARK   11  A    between atoms: _19  and  _20
REMARK   12  A    between atoms: _22  and  _24
REMARK   13  A    between atoms: _24  and  _25
REMARK   14  A    between atoms: _27  and  _29
REMARK   15  A    between atoms: _29  and  _30
REMARK   16  A    between atoms: _29  and  _32
REMARK   17  A    between atoms: _32  and  _33
REMARK   18  A    between atoms: _33  and  _34
REMARK   19  A    between atoms: _39  and  _41
REMARK   20  A    between atoms: _41  and  _42
REMARK   21  A    between atoms: _44  and  _46
REMARK   22  A    between atoms: _46  and  _47
REMARK   23  A    between atoms: _46  and  _49
REMARK   24  A    between atoms: _49  and  _50
REMARK   25  A    between atoms: _55  and  _56
REMARK   26  A    between atoms: _58  and  _60
REMARK   27  A    between atoms: _60  and  _61
REMARK   28  A    between atoms: _60  and  _63
REMARK   29  A    between atoms: _63  and  _64
REMARK   30  A    between atoms: _67  and  _69
REMARK   31  A    between atoms: _69  and  _70
REMARK   32  A    between atoms: _69  and  _72
REMARK   33  A    between atoms: _75  and  _77
REMARK   34  A    between atoms: _77  and  _78
REMARK   35  A    between atoms: _77  and  _80
REMARK   36  A    between atoms: _80  and  _81
REMARK   37  A    between atoms: _84  and  _86
REMARK   38  A    between atoms: _86  and  _87
REMARK   39  A    between atoms: _86  and  _89
REMARK   40  A    between atoms: _89  and  _90
REMARK   41  A    between atoms: _93  and  _95
REMARK   42  A    between atoms: _95  and  _96
REMARK   43  A    between atoms: _98  and  _100
REMARK   44  A    between atoms: _100  and  _101
REMARK   45  A    between atoms: _100  and  _103
REMARK   46  A    between atoms: _103  and  _104
REMARK   47  A    between atoms: _106  and  _108
REMARK   48  A    between atoms: _108  and  _109
REMARK   49  A    between atoms: _108  and  _111
REMARK   50  A    between atoms: _111  and  _112
REMARK   51  A    between atoms: _114  and  _116
REMARK   52  A    between atoms: _116  and  _117
REMARK   53  A    between atoms: _116  and  _119
REMARK   54  A    between atoms: _119  and  _120
REMARK   55  A    between atoms: _125  and  _127
REMARK   56  A    between atoms: _127  and  _128
REMARK   57  A    between atoms: _127  and  _130
REMARK   58  A    between atoms: _130  and  _131
REMARK   59  A    between atoms: _136  and  _137
REMARK   60  A    between atoms: _139  and  _141
REMARK   61  A    between atoms: _141  and  _142
REMARK   62  A    between atoms: _141  and  _144
REMARK   63  A    between atoms: _148  and  _149
REMARK   64  A    between atoms: _154  and  _156
REMARK   65  A    between atoms: _156  and  _157
REMARK   66  A    between atoms: _156  and  _159
REMARK   67  A    between atoms: _159  and  _160
REMARK   68  A    between atoms: _165  and  _166
REMARK   69  A    between atoms: _168  and  _170
REMARK   70  A    between atoms: _170  and  _171
REMARK   71  A    between atoms: _170  and  _173
REMARK   72  A    between atoms: _173  and  _174
REMARK   73  A    between atoms: _177  and  _179
REMARK   74  A    between atoms: _179  and  _180
REMARK   75  A    between atoms: _179  and  _182
REMARK   76  A    between atoms: _182  and  _183
REMARK   77  A    between atoms: _183  and  _184
REMARK   78  A    between atoms: _189  and  _191
REMARK   79  A    between atoms: _191  and  _192
REMARK   80  A    between atoms: _194  and  _196
REMARK   81  A    between atoms: _196  and  _197
REMARK   82  A    between atoms: _196  and  _199
REMARK   83  A    between atoms: _199  and  _200
REMARK   84  A    between atoms: _200  and  _201
REMARK   85  A    between atoms: _201  and  _202
REMARK   86  A    between atoms: _202  and  _203
REMARK   87  A    between atoms: _207  and  _209
REMARK   88  A    between atoms: _209  and  _210
REMARK   89  A    between atoms: _209  and  _212
REMARK   90  A    between atoms: _212  and  _213
REMARK   91  A    between atoms: _223  and  _225
REMARK   92  A    between atoms: _225  and  _226
REMARK   93  A    between atoms: _225  and  _228
REMARK   94  A    between atoms: _228  and  _229
REMARK   95  A    between atoms: _232  and  _234
REMARK   96  A    between atoms: _234  and  _235
REMARK   97  A    between atoms: _234  and  _237
REMARK   98  A    between atoms: _237  and  _238
REMARK   99  A    between atoms: _238  and  _239
REMARK  100  A    between atoms: _239  and  _240
REMARK  101  A    between atoms: _240  and  _241
REMARK  102  A    between atoms: _245  and  _247
REMARK  103  A    between atoms: _247  and  _248
REMARK  104  A    between atoms: _247  and  _250
REMARK  105  A    between atoms: _250  and  _251
REMARK  106  A    between atoms: _257  and  _259
REMARK  107  A    between atoms: _259  and  _260
REMARK  108  A    between atoms: _259  and  _262
REMARK  109  A    between atoms: _262  and  _263
REMARK  110  A    between atoms: _269  and  _271
REMARK  111  A    between atoms: _271  and  _272
REMARK  112  A    between atoms: _271  and  _274
REMARK  113  A    between atoms: _274  and  _275
REMARK  114  A    between atoms: _278  and  _280
REMARK  115  A    between atoms: _280  and  _281
REMARK  116  A    between atoms: _280  and  _283
REMARK  117  A    between atoms: _283  and  _284
REMARK  118  A    between atoms: _289  and  _291
REMARK  119  A    between atoms: _291  and  _292
REMARK  120  A    between atoms: _291  and  _294
REMARK  121  A    between atoms: _294  and  _295
REMARK  122  A    between atoms: _297  and  _299
REMARK  123  A    between atoms: _299  and  _300
REMARK  124  A    between atoms: _299  and  _302
REMARK  125  A    between atoms: _302  and  _303
REMARK  126  A    between atoms: _313  and  _315
REMARK  127  A    between atoms: _315  and  _316
REMARK  128  A    between atoms: _318  and  _320
REMARK  129  A    between atoms: _320  and  _321
REMARK  130  A    between atoms: _320  and  _323
REMARK  131  A    between atoms: _323  and  _324
REMARK  132  A    between atoms: _327  and  _329
REMARK  133  A    between atoms: _329  and  _330
REMARK  134  A    between atoms: _329  and  _332
REMARK  135  A    between atoms: _332  and  _333
REMARK  136  A    between atoms: _336  and  _338
REMARK  137  A    between atoms: _338  and  _339
REMARK  138  A    between atoms: _341  and  _343
REMARK  139  A    between atoms: _343  and  _344
REMARK  140  A    between atoms: _343  and  _346
REMARK  141  A    between atoms: _346  and  _347
REMARK  142  A    between atoms: _350  and  _352
REMARK  143  A    between atoms: _352  and  _353
REMARK  144  A    between atoms: _356  and  _358
REMARK  145  A    between atoms: _358  and  _359
REMARK  146  A    between atoms: _358  and  _361
REMARK  147  A    between atoms: _361  and  _362
REMARK  148  A    between atoms: _367  and  _368
REMARK  149  A    between atoms: _370  and  _372
REMARK  150  A    between atoms: _372  and  _373
REMARK  151  A    between atoms: _372  and  _375
REMARK  152  A    between atoms: _375  and  _376
REMARK  153  A    between atoms: _376  and  _377
REMARK  154  A    between atoms: _380  and  _382
REMARK  155  A    between atoms: _382  and  _383
REMARK  156  A    between atoms: _382  and  _385
REMARK  157  A    between atoms: _385  and  _386
REMARK  158  A    between atoms: _389  and  _391
REMARK  159  A    between atoms: _391  and  _392
REMARK  160  A    between atoms: _395  and  _397
REMARK  161  A    between atoms: _397  and  _398
REMARK  162  A    between atoms: _397  and  _400
REMARK  163  A    between atoms: _400  and  _401
REMARK  164  A    between atoms: _401  and  _402
REMARK  165  A    between atoms: _402  and  _403
REMARK  166  A    between atoms: _412  and  _414
REMARK  167  A    between atoms: _414  and  _415
REMARK  168  A    between atoms: _414  and  _417
REMARK  169  A    between atoms: _417  and  _418
REMARK  170  A    between atoms: _421  and  _423
REMARK  171  A    between atoms: _423  and  _424
REMARK  172  A    between atoms: _423  and  _426
REMARK  173  A    between atoms: _429  and  _431
REMARK  174  A    between atoms: _431  and  _432
REMARK  175  A    between atoms: _431  and  _434
REMARK  176  A    between atoms: _434  and  _435
REMARK  177  A    between atoms: _445  and  _447
REMARK  178  A    between atoms: _447  and  _448
REMARK  179  A    between atoms: _447  and  _450
REMARK  180  A    between atoms: _450  and  _451
REMARK  181  A    between atoms: _456  and  _457
REMARK  182  A    between atoms: _459  and  _461
REMARK  183  A    between atoms: _461  and  _462
REMARK  184  A    between atoms: _461  and  _464
REMARK  185  A    between atoms: _464  and  _465
REMARK  186  A    between atoms: _470  and  _471
REMARK  187  A    between atoms: _473  and  _475
REMARK  188  A    between atoms: _475  and  _476
REMARK  189  A    between atoms: _475  and  _478
REMARK  190  A    between atoms: _478  and  _479
REMARK  191  A    between atoms: _482  and  _484
REMARK  192  A    between atoms: _484  and  _485
REMARK  193  A    between atoms: _484  and  _487
REMARK  194  A    between atoms: _487  and  _488
REMARK  195  A    between atoms: _488  and  _489
REMARK  196  A    between atoms: _489  and  _490
REMARK  197  A    between atoms: _490  and  _491
REMARK  198  A    between atoms: _495  and  _497
REMARK  199  A    between atoms: _497  and  _498
REMARK  200  A    between atoms: _497  and  _500
REMARK  201  A    between atoms: _500  and  _501
REMARK  202  A    between atoms: _504  and  _506
REMARK  203  A    between atoms: _506  and  _507
REMARK  204  A    between atoms: _506  and  _509
REMARK  205  A    between atoms: _512  and  _514
REMARK  206  A    between atoms: _514  and  _515
REMARK  207  A    between atoms: _514  and  _517
REMARK  208  A    between atoms: _517  and  _518
REMARK  209  A    between atoms: _521  and  _523
REMARK  210  A    between atoms: _523  and  _524
REMARK  211  A    between atoms: _523  and  _526
REMARK  212  A    between atoms: _526  and  _527
REMARK  213  A    between atoms: _529  and  _531
REMARK  214  A    between atoms: _531  and  _532
REMARK  215  A    between atoms: _534  and  _536
REMARK  216  A    between atoms: _536  and  _537
REMARK  217  A    between atoms: _536  and  _539
REMARK  218  A    between atoms: _539  and  _540
REMARK  219  A    between atoms: _543  and  _545
REMARK  220  A    between atoms: _545  and  _546
REMARK  221  A    between atoms: _545  and  _548
REMARK  222  A    between atoms: _548  and  _549
REMARK  223  A    between atoms: _552  and  _554
REMARK  224  A    between atoms: _554  and  _555
REMARK  225  A    between atoms: _554  and  _557
REMARK  226  A    between atoms: _557  and  _558
REMARK  227  A    between atoms: _563  and  _565
REMARK  228  A    between atoms: _565  and  _566
REMARK  229  A    between atoms: _565  and  _568
REMARK  230  A    between atoms: _568  and  _569
REMARK  231  A    between atoms: _572  and  _574
REMARK  232  A    between atoms: _574  and  _575
REMARK  233  A    between atoms: _574  and  _577
REMARK  234  A    between atoms: _577  and  _578
REMARK  235  A    between atoms: _578  and  _579
REMARK  236  A    between atoms: _579  and  _580
REMARK  237  A    between atoms: _589  and  _591
REMARK  238  A    between atoms: _591  and  _592
REMARK  239  A    between atoms: _591  and  _594
REMARK  240  A    between atoms: _594  and  _595
REMARK  241  A    between atoms: _598  and  _600
REMARK  242  A    between atoms: _600  and  _601
REMARK  243  A    between atoms: _600  and  _603
REMARK  244  A    between atoms: _603  and  _604
REMARK  245  A    between atoms: _604  and  _605
REMARK  246  A    between atoms: _605  and  _606
REMARK  247  A    between atoms: _615  and  _617
REMARK  248  A    between atoms: _617  and  _618
REMARK  249  A    between atoms: _617  and  _620
REMARK  250  A    between atoms: _620  and  _621
REMARK  251  A    between atoms: _621  and  _622
REMARK  252  A    between atoms: _622  and  _623
REMARK  253  A    between atoms: _623  and  _624
REMARK  254  A    between atoms: _628  and  _630
REMARK  255  A    between atoms: _630  and  _631
REMARK  256  A    between atoms: _630  and  _633
REMARK  257  A    between atoms: _633  and  _634
REMARK  258  A    between atoms: _640  and  _642
REMARK  259  A    between atoms: _642  and  _643
REMARK  260  A    between atoms: _646  and  _648
REMARK  261  A    between atoms: _648  and  _649
REMARK  262  A    between atoms: _648  and  _651
REMARK  263  A    between atoms: _651  and  _652
REMARK  264  A    between atoms: _655  and  _657
REMARK  265  A    between atoms: _657  and  _658
REMARK  266  A    between atoms: _657  and  _660
REMARK  267  A    between atoms: _660  and  _661
REMARK  268  A    between atoms: _663  and  _665
REMARK  269  A    between atoms: _665  and  _666
REMARK  270  A    between atoms: _665  and  _668
REMARK  271  A    between atoms: _668  and  _669
REMARK  272  A    between atoms: _669  and  _670
REMARK  273  A    between atoms: _675  and  _677
REMARK  274  A    between atoms: _677  and  _678
REMARK  275  A    between atoms: _677  and  _680
REMARK  276  A    between atoms: _680  and  _681
REMARK  277  A    between atoms: _683  and  _685
REMARK  278  A    between atoms: _685  and  _686
REMARK  279  A    between atoms: _685  and  _688
REMARK  280  A    between atoms: _688  and  _689
REMARK  281  A    between atoms: _691  and  _693
REMARK  282  A    between atoms: _693  and  _694
REMARK  283  A    between atoms: _693  and  _696
REMARK  284  A    between atoms: _696  and  _697
REMARK  285  A    between atoms: _700  and  _702
REMARK  286  A    between atoms: _702  and  _703
REMARK  287  A    between atoms: _705  and  _707
REMARK  288  A    between atoms: _707  and  _708
REMARK  289  A    between atoms: _707  and  _710
REMARK  290  A    between atoms: _710  and  _711
REMARK  291  A    between atoms: _714  and  _716
REMARK  292  A    between atoms: _716  and  _717
REMARK  293  A    between atoms: _716  and  _719
REMARK  294  A    between atoms: _722  and  _724
REMARK  295  A    between atoms: _724  and  _725
REMARK  296  A    between atoms: _724  and  _727
REMARK  297  A    between atoms: _727  and  _728
REMARK  298  A    between atoms: _728  and  _729
REMARK  299  A    between atoms: _731  and  _733
REMARK  300  A    between atoms: _733  and  _734
REMARK  301  A    between atoms: _736  and  _738
REMARK  302  A    between atoms: _738  and  _739
REMARK  303  A    between atoms: _742  and  _744
REMARK  304  A    between atoms: _744  and  _745
REMARK  305  A    between atoms: _744  and  _747
REMARK  306  A    between atoms: _750  and  _752
REMARK  307  A    between atoms: _752  and  _753
REMARK  308  A    between atoms: _752  and  _755
REMARK  309  A    between atoms: _755  and  _756
REMARK  310  A    between atoms: _756  and  _757
REMARK                            x       y       z     vdW  Elec       q    Type
REMARK                         _______ _______ _______ _____ _____    ______ ____
ROOT
ATOM      1  O   HOH     1      -5.740  17.258  26.054  0.00  0.00    +0.000 OA
ENDROOT
TORSDOF 0
REMARK  Name = ../refined-set-2016/3i25/3i25_pocket.pdb
REMARK  310 active torsions:
REMARK  status: ('A' for Active; 'I' for Inactive)
REMARK    1  A    between atoms: _1  and  _3
REMARK    2  A    between atoms: _3  and  _4
REMARK    3  A    between atoms: _3  and  _6
REMARK    4  A    between atoms: _6  and  _7
REMARK    5  A    between atoms: _7  and  _8
REMARK    6  A    between atoms: _8  and  _9
REMARK    7  A    between atoms: _9  and  _10
REMARK    8  A    between atoms: _14  and  _16
REMARK    9  A    between atoms: _16  and  _17
REMARK   10  A    between atoms: _16  and  _19
REMARK   11  A    between atoms: _19  and  _20
REMARK   12  A    between atoms: _22  and  _24
REMARK   13  A    between atoms: _24  and  _25
REMARK   14  A    between atoms: _27  and  _29
REMARK   15  A    between atoms: _29  and  _30
REMARK   16  A    between atoms: _29  and  _32
REMARK   17  A    between atoms: _32  and  _33
REMARK   18  A    between atoms: _33  and  _34
REMARK   19  A    between atoms: _39  and  _41
REMARK   20  A    between atoms: _41  and  _42
REMARK   21  A    between atoms: _44  and  _46
REMARK   22  A    between atoms: _46  and  _47
REMARK   23  A    between atoms: _46  and  _49
REMARK   24  A    between atoms: _49  and  _50
REMARK   25  A    between atoms: _55  and  _56
REMARK   26  A    between atoms: _58  and  _60
REMARK   27  A    between atoms: _60  and  _61
REMARK   28  A    between atoms: _60  and  _63
REMARK   29  A    between atoms: _63  and  _64
REMARK   30  A    between atoms: _67  and  _69
REMARK   31  A    between atoms: _69  and  _70
REMARK   32  A    between atoms: _69  and  _72
REMARK   33  A    between atoms: _75  and  _77
REMARK   34  A    between atoms: _77  and  _78
REMARK   35  A    between atoms: _77  and  _80
REMARK   36  A    between atoms: _80  and  _81
REMARK   37  A    between atoms: _84  and  _86
REMARK   38  A    between atoms: _86  and  _87
REMARK   39  A    between atoms: _86  and  _89
REMARK   40  A    between atoms: _89  and  _90
REMARK   41  A    between atoms: _93  and  _95
REMARK   42  A    between atoms: _95  and  _96
REMARK   43  A    between atoms: _98  and  _100
REMARK   44  A    between atoms: _100  and  _101
REMARK   45  A    between atoms: _100  and  _103
REMARK   46  A    between atoms: _103  and  _104
REMARK   47  A    between atoms: _106  and  _108
REMARK   48  A    between atoms: _108  and  _109
REMARK   49  A    between atoms: _108  and  _111
REMARK   50  A    between atoms: _111  and  _112
REMARK   51  A    between atoms: _114  and  _116
REMARK   52  A    between atoms: _116  and  _117
REMARK   53  A    between atoms: _116  and  _119
REMARK   54  A    between atoms: _119  and  _120
REMARK   55  A    between atoms: _125  and  _127
REMARK   56  A    between atoms: _127  and  _128
REMARK   57  A    between atoms: _127  and  _130
REMARK   58  A    between atoms: _130  and  _131
REMARK   59  A    between atoms: _136  and  _137
REMARK   60  A    between atoms: _139  and  _141
REMARK   61  A    between atoms: _141  and  _142
REMARK   62  A    between atoms: _141  and  _144
REMARK   63  A    between atoms: _148  and  _149
REMARK   64  A    between atoms: _154  and  _156
REMARK   65  A    between atoms: _156  and  _157
REMARK   66  A    between atoms: _156  and  _159
REMARK   67  A    between atoms: _159  and  _160
REMARK   68  A    between atoms: _165  and  _166
REMARK   69  A    between atoms: _168  and  _170
REMARK   70  A    between atoms: _170  and  _171
REMARK   71  A    between atoms: _170  and  _173
REMARK   72  A    between atoms: _173  and  _174
REMARK   73  A    between atoms: _177  and  _179
REMARK   74  A    between atoms: _179  and  _180
REMARK   75  A    between atoms: _179  and  _182
REMARK   76  A    between atoms: _182  and  _183
REMARK   77  A    between atoms: _183  and  _184
REMARK   78  A    between atoms: _189  and  _191
REMARK   79  A    between atoms: _191  and  _192
REMARK   80  A    between atoms: _194  and  _196
REMARK   81  A    between atoms: _196  and  _197
REMARK   82  A    between atoms: _196  and  _199
REMARK   83  A    between atoms: _199  and  _200
REMARK   84  A    between atoms: _200  and  _201
REMARK   85  A    between atoms: _201  and  _202
REMARK   86  A    between atoms: _202  and  _203
REMARK   87  A    between atoms: _207  and  _209
REMARK   88  A    between atoms: _209  and  _210
REMARK   89  A    between atoms: _209  and  _212
REMARK   90  A    between atoms: _212  and  _213
REMARK   91  A    between atoms: _223  and  _225
REMARK   92  A    between atoms: _225  and  _226
REMARK   93  A    between atoms: _225  and  _228
REMARK   94  A    between atoms: _228  and  _229
REMARK   95  A    between atoms: _232  and  _234
REMARK   96  A    between atoms: _234  and  _235
REMARK   97  A    between atoms: _234  and  _237
REMARK   98  A    between atoms: _237  and  _238
REMARK   99  A    between atoms: _238  and  _239
REMARK  100  A    between atoms: _239  and  _240
REMARK  101  A    between atoms: _240  and  _241
REMARK  102  A    between atoms: _245  and  _247
REMARK  103  A    between atoms: _247  and  _248
REMARK  104  A    between atoms: _247  and  _250
REMARK  105  A    between atoms: _250  and  _251
REMARK  106  A    between atoms: _257  and  _259
REMARK  107  A    between atoms: _259  and  _260
REMARK  108  A    between atoms: _259  and  _262
REMARK  109  A    between atoms: _262  and  _263
REMARK  110  A    between atoms: _269  and  _271
REMARK  111  A    between atoms: _271  and  _272
REMARK  112  A    between atoms: _271  and  _274
REMARK  113  A    between atoms: _274  and  _275
REMARK  114  A    between atoms: _278  and  _280
REMARK  115  A    between atoms: _280  and  _281
REMARK  116  A    between atoms: _280  and  _283
REMARK  117  A    between atoms: _283  and  _284
REMARK  118  A    between atoms: _289  and  _291
REMARK  119  A    between atoms: _291  and  _292
REMARK  120  A    between atoms: _291  and  _294
REMARK  121  A    between atoms: _294  and  _295
REMARK  122  A    between atoms: _297  and  _299
REMARK  123  A    between atoms: _299  and  _300
REMARK  124  A    between atoms: _299  and  _302
REMARK  125  A    between atoms: _302  and  _303
REMARK  126  A    between atoms: _313  and  _315
REMARK  127  A    between atoms: _315  and  _316
REMARK  128  A    between atoms: _318  and  _320
REMARK  129  A    between atoms: _320  and  _321
REMARK  130  A    between atoms: _320  and  _323
REMARK  131  A    between atoms: _323  and  _324
REMARK  132  A    between atoms: _327  and  _329
REMARK  133  A    between atoms: _329  and  _330
REMARK  134  A    between atoms: _329  and  _332
REMARK  135  A    between atoms: _332  and  _333
REMARK  136  A    between atoms: _336  and  _338
REMARK  137  A    between atoms: _338  and  _339
REMARK  138  A    between atoms: _341  and  _343
REMARK  139  A    between atoms: _343  and  _344
REMARK  140  A    between atoms: _343  and  _346
REMARK  141  A    between atoms: _346  and  _347
REMARK  142  A    between atoms: _350  and  _352
REMARK  143  A    between atoms: _352  and  _353
REMARK  144  A    between atoms: _356  and  _358
REMARK  145  A    between atoms: _358  and  _359
REMARK  146  A    between atoms: _358  and  _361
REMARK  147  A    between atoms: _361  and  _362
REMARK  148  A    between atoms: _367  and  _368
REMARK  149  A    between atoms: _370  and  _372
REMARK  150  A    between atoms: _372  and  _373
REMARK  151  A    between atoms: _372  and  _375
REMARK  152  A    between atoms: _375  and  _376
REMARK  153  A    between atoms: _376  and  _377
REMARK  154  A    between atoms: _380  and  _382
REMARK  155  A    between atoms: _382  and  _383
REMARK  156  A    between atoms: _382  and  _385
REMARK  157  A    between atoms: _385  and  _386
REMARK  158  A    between atoms: _389  and  _391
REMARK  159  A    between atoms: _391  and  _392
REMARK  160  A    between atoms: _395  and  _397
REMARK  161  A    between atoms: _397  and  _398
REMARK  162  A    between atoms: _397  and  _400
REMARK  163  A    between atoms: _400  and  _401
REMARK  164  A    between atoms: _401  and  _402
REMARK  165  A    between atoms: _402  and  _403
REMARK  166  A    between atoms: _412  and  _414
REMARK  167  A    between atoms: _414  and  _415
REMARK  168  A    between atoms: _414  and  _417
REMARK  169  A    between atoms: _417  and  _418
REMARK  170  A    between atoms: _421  and  _423
REMARK  171  A    between atoms: _423  and  _424
REMARK  172  A    between atoms: _423  and  _426
REMARK  173  A    between atoms: _429  and  _431
REMARK  174  A    between atoms: _431  and  _432
REMARK  175  A    between atoms: _431  and  _434
REMARK  176  A    between atoms: _434  and  _435
REMARK  177  A    between atoms: _445  and  _447
REMARK  178  A    between atoms: _447  and  _448
REMARK  179  A    between atoms: _447  and  _450
REMARK  180  A    between atoms: _450  and  _451
REMARK  181  A    between atoms: _456  and  _457
REMARK  182  A    between atoms: _459  and  _461
REMARK  183  A    between atoms: _461  and  _462
REMARK  184  A    between atoms: _461  and  _464
REMARK  185  A    between atoms: _464  and  _465
REMARK  186  A    between atoms: _470  and  _471
REMARK  187  A    between atoms: _473  and  _475
REMARK  188  A    between atoms: _475  and  _476
REMARK  189  A    between atoms: _475  and  _478
REMARK  190  A    between atoms: _478  and  _479
REMARK  191  A    between atoms: _482  and  _484
REMARK  192  A    between atoms: _484  and  _485
REMARK  193  A    between atoms: _484  and  _487
REMARK  194  A    between atoms: _487  and  _488
REMARK  195  A    between atoms: _488  and  _489
REMARK  196  A    between atoms: _489  and  _490
REMARK  197  A    between atoms: _490  and  _491
REMARK  198  A    between atoms: _495  and  _497
REMARK  199  A    between atoms: _497  and  _498
REMARK  200  A    between atoms: _497  and  _500
REMARK  201  A    between atoms: _500  and  _501
REMARK  202  A    between atoms: _504  and  _506
REMARK  203  A    between atoms: _506  and  _507
REMARK  204  A    between atoms: _506  and  _509
REMARK  205  A    between atoms: _512  and  _514
REMARK  206  A    between atoms: _514  and  _515
REMARK  207  A    between atoms: _514  and  _517
REMARK  208  A    between atoms: _517  and  _518
REMARK  209  A    between atoms: _521  and  _523
REMARK  210  A    between atoms: _523  and  _524
REMARK  211  A    between atoms: _523  and  _526
REMARK  212  A    between atoms: _526  and  _527
REMARK  213  A    between atoms: _529  and  _531
REMARK  214  A    between atoms: _531  and  _532
REMARK  215  A    between atoms: _534  and  _536
REMARK  216  A    between atoms: _536  and  _537
REMARK  217  A    between atoms: _536  and  _539
REMARK  218  A    between atoms: _539  and  _540
REMARK  219  A    between atoms: _543  and  _545
REMARK  220  A    between atoms: _545  and  _546
REMARK  221  A    between atoms: _545  and  _548
REMARK  222  A    between atoms: _548  and  _549
REMARK  223  A    between atoms: _552  and  _554
REMARK  224  A    between atoms: _554  and  _555
REMARK  225  A    between atoms: _554  and  _557
REMARK  226  A    between atoms: _557  and  _558
REMARK  227  A    between atoms: _563  and  _565
REMARK  228  A    between atoms: _565  and  _566
REMARK  229  A    between atoms: _565  and  _568
REMARK  230  A    between atoms: _568  and  _569
REMARK  231  A    between atoms: _572  and  _574
REMARK  232  A    between atoms: _574  and  _575
REMARK  233  A    between atoms: _574  and  _577
REMARK  234  A    between atoms: _577  and  _578
REMARK  235  A    between atoms: _578  and  _579
REMARK  236  A    between atoms: _579  and  _580
REMARK  237  A    between atoms: _589  and  _591
REMARK  238  A    between atoms: _591  and  _592
REMARK  239  A    between atoms: _591  and  _594
REMARK  240  A    between atoms: _594  and  _595
REMARK  241  A    between atoms: _598  and  _600
REMARK  242  A    between atoms: _600  and  _601
REMARK  243  A    between atoms: _600  and  _603
REMARK  244  A    between atoms: _603  and  _604
REMARK  245  A    between atoms: _604  and  _605
REMARK  246  A    between atoms: _605  and  _606
REMARK  247  A    between atoms: _615  and  _617
REMARK  248  A    between atoms: _617  and  _618
REMARK  249  A    between atoms: _617  and  _620
REMARK  250  A    between atoms: _620  and  _621
REMARK  251  A    between atoms: _621  and  _622
REMARK  252  A    between atoms: _622  and  _623
REMARK  253  A    between atoms: _623  and  _624
REMARK  254  A    between atoms: _628  and  _630
REMARK  255  A    between atoms: _630  and  _631
REMARK  256  A    between atoms: _630  and  _633
REMARK  257  A    between atoms: _633  and  _634
REMARK  258  A    between atoms: _640  and  _642
REMARK  259  A    between atoms: _642  and  _643
REMARK  260  A    between atoms: _646  and  _648
REMARK  261  A    between atoms: _648  and  _649
REMARK  262  A    between atoms: _648  and  _651
REMARK  263  A    between atoms: _651  and  _652
REMARK  264  A    between atoms: _655  and  _657
REMARK  265  A    between atoms: _657  and  _658
REMARK  266  A    between atoms: _657  and  _660
REMARK  267  A    between atoms: _660  and  _661
REMARK  268  A    between atoms: _663  and  _665
REMARK  269  A    between atoms: _665  and  _666
REMARK  270  A    between atoms: _665  and  _668
REMARK  271  A    between atoms: _668  and  _669
REMARK  272  A    between atoms: _669  and  _670
REMARK  273  A    between atoms: _675  and  _677
REMARK  274  A    between atoms: _677  and  _678
REMARK  275  A    between atoms: _677  and  _680
REMARK  276  A    between atoms: _680  and  _681
REMARK  277  A    between atoms: _683  and  _685
REMARK  278  A    between atoms: _685  and  _686
REMARK  279  A    between atoms: _685  and  _688
REMARK  280  A    between atoms: _688  and  _689
REMARK  281  A    between atoms: _691  and  _693
REMARK  282  A    between atoms: _693  and  _694
REMARK  283  A    between atoms: _693  and  _696
REMARK  284  A    between atoms: _696  and  _697
REMARK  285  A    between atoms: _700  and  _702
REMARK  286  A    between atoms: _702  and  _703
REMARK  287  A    between atoms: _705  and  _707
REMARK  288  A    between atoms: _707  and  _708
REMARK  289  A    between atoms: _707  and  _710
REMARK  290  A    between atoms: _710  and  _711
REMARK  291  A    between atoms: _714  and  _716
REMARK  292  A    between atoms: _716  and  _717
REMARK  293  A    between atoms: _716  and  _719
REMARK  294  A    between atoms: _722  and  _724
REMARK  295  A    between atoms: _724  and  _725
REMARK  296  A    between atoms: _724  and  _727
REMARK  297  A    between atoms: _727  and  _728
REMARK  298  A    between atoms: _728  and  _729
REMARK  299  A    between atoms: _731  and  _733
REMARK  300  A    between atoms: _733  and  _734
REMARK  301  A    between atoms: _736  and  _738
REMARK  302  A    between atoms: _738  and  _739
REMARK  303  A    between atoms: _742  and  _744
REMARK  304  A    between atoms: _744  and  _745
REMARK  305  A    between atoms: _744  and  _747
REMARK  306  A    between atoms: _750  and  _752
REMARK  307  A    between atoms: _752  and  _753
REMARK  308  A    between atoms: _752  and  _755
REMARK  309  A    between atoms: _755  and  _756
REMARK  310  A    between atoms: _756  and  _757
REMARK                            x       y       z     vdW  Elec       q    Type
REMARK                         _______ _______ _______ _____ _____    ______ ____
ROOT
ATOM      1  O   HOH     1      -4.005  27.424  28.412  0.00  0.00    +0.000 OA
ENDROOT
TORSDOF 0
REMARK  Name = ../refined-set-2016/3i25/3i25_pocket.pdb
REMARK  310 active torsions:
REMARK  status: ('A' for Active; 'I' for Inactive)
REMARK    1  A    between atoms: _1  and  _3
REMARK    2  A    between atoms: _3  and  _4
REMARK    3  A    between atoms: _3  and  _6
REMARK    4  A    between atoms: _6  and  _7
REMARK    5  A    between atoms: _7  and  _8
REMARK    6  A    between atoms: _8  and  _9
REMARK    7  A    between atoms: _9  and  _10
REMARK    8  A    between atoms: _14  and  _16
REMARK    9  A    between atoms: _16  and  _17
REMARK   10  A    between atoms: _16  and  _19
REMARK   11  A    between atoms: _19  and  _20
REMARK   12  A    between atoms: _22  and  _24
REMARK   13  A    between atoms: _24  and  _25
REMARK   14  A    between atoms: _27  and  _29
REMARK   15  A    between atoms: _29  and  _30
REMARK   16  A    between atoms: _29  and  _32
REMARK   17  A    between atoms: _32  and  _33
REMARK   18  A    between atoms: _33  and  _34
REMARK   19  A    between atoms: _39  and  _41
REMARK   20  A    between atoms: _41  and  _42
REMARK   21  A    between atoms: _44  and  _46
REMARK   22  A    between atoms: _46  and  _47
REMARK   23  A    between atoms: _46  and  _49
REMARK   24  A    between atoms: _49  and  _50
REMARK   25  A    between atoms: _55  and  _56
REMARK   26  A    between atoms: _58  and  _60
REMARK   27  A    between atoms: _60  and  _61
REMARK   28  A    between atoms: _60  and  _63
REMARK   29  A    between atoms: _63  and  _64
REMARK   30  A    between atoms: _67  and  _69
REMARK   31  A    between atoms: _69  and  _70
REMARK   32  A    between atoms: _69  and  _72
REMARK   33  A    between atoms: _75  and  _77
REMARK   34  A    between atoms: _77  and  _78
REMARK   35  A    between atoms: _77  and  _80
REMARK   36  A    between atoms: _80  and  _81
REMARK   37  A    between atoms: _84  and  _86
REMARK   38  A    between atoms: _86  and  _87
REMARK   39  A    between atoms: _86  and  _89
REMARK   40  A    between atoms: _89  and  _90
REMARK   41  A    between atoms: _93  and  _95
REMARK   42  A    between atoms: _95  and  _96
REMARK   43  A    between atoms: _98  and  _100
REMARK   44  A    between atoms: _100  and  _101
REMARK   45  A    between atoms: _100  and  _103
REMARK   46  A    between atoms: _103  and  _104
REMARK   47  A    between atoms: _106  and  _108
REMARK   48  A    between atoms: _108  and  _109
REMARK   49  A    between atoms: _108  and  _111
REMARK   50  A    between atoms: _111  and  _112
REMARK   51  A    between atoms: _114  and  _116
REMARK   52  A    between atoms: _116  and  _117
REMARK   53  A    between atoms: _116  and  _119
REMARK   54  A    between atoms: _119  and  _120
REMARK   55  A    between atoms: _125  and  _127
REMARK   56  A    between atoms: _127  and  _128
REMARK   57  A    between atoms: _127  and  _130
REMARK   58  A    between atoms: _130  and  _131
REMARK   59  A    between atoms: _136  and  _137
REMARK   60  A    between atoms: _139  and  _141
REMARK   61  A    between atoms: _141  and  _142
REMARK   62  A    between atoms: _141  and  _144
REMARK   63  A    between atoms: _148  and  _149
REMARK   64  A    between atoms: _154  and  _156
REMARK   65  A    between atoms: _156  and  _157
REMARK   66  A    between atoms: _156  and  _159
REMARK   67  A    between atoms: _159  and  _160
REMARK   68  A    between atoms: _165  and  _166
REMARK   69  A    between atoms: _168  and  _170
REMARK   70  A    between atoms: _170  and  _171
REMARK   71  A    between atoms: _170  and  _173
REMARK   72  A    between atoms: _173  and  _174
REMARK   73  A    between atoms: _177  and  _179
REMARK   74  A    between atoms: _179  and  _180
REMARK   75  A    between atoms: _179  and  _182
REMARK   76  A    between atoms: _182  and  _183
REMARK   77  A    between atoms: _183  and  _184
REMARK   78  A    between atoms: _189  and  _191
REMARK   79  A    between atoms: _191  and  _192
REMARK   80  A    between atoms: _194  and  _196
REMARK   81  A    between atoms: _196  and  _197
REMARK   82  A    between atoms: _196  and  _199
REMARK   83  A    between atoms: _199  and  _200
REMARK   84  A    between atoms: _200  and  _201
REMARK   85  A    between atoms: _201  and  _202
REMARK   86  A    between atoms: _202  and  _203
REMARK   87  A    between atoms: _207  and  _209
REMARK   88  A    between atoms: _209  and  _210
REMARK   89  A    between atoms: _209  and  _212
REMARK   90  A    between atoms: _212  and  _213
REMARK   91  A    between atoms: _223  and  _225
REMARK   92  A    between atoms: _225  and  _226
REMARK   93  A    between atoms: _225  and  _228
REMARK   94  A    between atoms: _228  and  _229
REMARK   95  A    between atoms: _232  and  _234
REMARK   96  A    between atoms: _234  and  _235
REMARK   97  A    between atoms: _234  and  _237
REMARK   98  A    between atoms: _237  and  _238
REMARK   99  A    between atoms: _238  and  _239
REMARK  100  A    between atoms: _239  and  _240
REMARK  101  A    between atoms: _240  and  _241
REMARK  102  A    between atoms: _245  and  _247
REMARK  103  A    between atoms: _247  and  _248
REMARK  104  A    between atoms: _247  and  _250
REMARK  105  A    between atoms: _250  and  _251
REMARK  106  A    between atoms: _257  and  _259
REMARK  107  A    between atoms: _259  and  _260
REMARK  108  A    between atoms: _259  and  _262
REMARK  109  A    between atoms: _262  and  _263
REMARK  110  A    between atoms: _269  and  _271
REMARK  111  A    between atoms: _271  and  _272
REMARK  112  A    between atoms: _271  and  _274
REMARK  113  A    between atoms: _274  and  _275
REMARK  114  A    between atoms: _278  and  _280
REMARK  115  A    between atoms: _280  and  _281
REMARK  116  A    between atoms: _280  and  _283
REMARK  117  A    between atoms: _283  and  _284
REMARK  118  A    between atoms: _289  and  _291
REMARK  119  A    between atoms: _291  and  _292
REMARK  120  A    between atoms: _291  and  _294
REMARK  121  A    between atoms: _294  and  _295
REMARK  122  A    between atoms: _297  and  _299
REMARK  123  A    between atoms: _299  and  _300
REMARK  124  A    between atoms: _299  and  _302
REMARK  125  A    between atoms: _302  and  _303
REMARK  126  A    between atoms: _313  and  _315
REMARK  127  A    between atoms: _315  and  _316
REMARK  128  A    between atoms: _318  and  _320
REMARK  129  A    between atoms: _320  and  _321
REMARK  130  A    between atoms: _320  and  _323
REMARK  131  A    between atoms: _323  and  _324
REMARK  132  A    between atoms: _327  and  _329
REMARK  133  A    between atoms: _329  and  _330
REMARK  134  A    between atoms: _329  and  _332
REMARK  135  A    between atoms: _332  and  _333
REMARK  136  A    between atoms: _336  and  _338
REMARK  137  A    between atoms: _338  and  _339
REMARK  138  A    between atoms: _341  and  _343
REMARK  139  A    between atoms: _343  and  _344
REMARK  140  A    between atoms: _343  and  _346
REMARK  141  A    between atoms: _346  and  _347
REMARK  142  A    between atoms: _350  and  _352
REMARK  143  A    between atoms: _352  and  _353
REMARK  144  A    between atoms: _356  and  _358
REMARK  145  A    between atoms: _358  and  _359
REMARK  146  A    between atoms: _358  and  _361
REMARK  147  A    between atoms: _361  and  _362
REMARK  148  A    between atoms: _367  and  _368
REMARK  149  A    between atoms: _370  and  _372
REMARK  150  A    between atoms: _372  and  _373
REMARK  151  A    between atoms: _372  and  _375
REMARK  152  A    between atoms: _375  and  _376
REMARK  153  A    between atoms: _376  and  _377
REMARK  154  A    between atoms: _380  and  _382
REMARK  155  A    between atoms: _382  and  _383
REMARK  156  A    between atoms: _382  and  _385
REMARK  157  A    between atoms: _385  and  _386
REMARK  158  A    between atoms: _389  and  _391
REMARK  159  A    between atoms: _391  and  _392
REMARK  160  A    between atoms: _395  and  _397
REMARK  161  A    between atoms: _397  and  _398
REMARK  162  A    between atoms: _397  and  _400
REMARK  163  A    between atoms: _400  and  _401
REMARK  164  A    between atoms: _401  and  _402
REMARK  165  A    between atoms: _402  and  _403
REMARK  166  A    between atoms: _412  and  _414
REMARK  167  A    between atoms: _414  and  _415
REMARK  168  A    between atoms: _414  and  _417
REMARK  169  A    between atoms: _417  and  _418
REMARK  170  A    between atoms: _421  and  _423
REMARK  171  A    between atoms: _423  and  _424
REMARK  172  A    between atoms: _423  and  _426
REMARK  173  A    between atoms: _429  and  _431
REMARK  174  A    between atoms: _431  and  _432
REMARK  175  A    between atoms: _431  and  _434
REMARK  176  A    between atoms: _434  and  _435
REMARK  177  A    between atoms: _445  and  _447
REMARK  178  A    between atoms: _447  and  _448
REMARK  179  A    between atoms: _447  and  _450
REMARK  180  A    between atoms: _450  and  _451
REMARK  181  A    between atoms: _456  and  _457
REMARK  182  A    between atoms: _459  and  _461
REMARK  183  A    between atoms: _461  and  _462
REMARK  184  A    between atoms: _461  and  _464
REMARK  185  A    between atoms: _464  and  _465
REMARK  186  A    between atoms: _470  and  _471
REMARK  187  A    between atoms: _473  and  _475
REMARK  188  A    between atoms: _475  and  _476
REMARK  189  A    between atoms: _475  and  _478
REMARK  190  A    between atoms: _478  and  _479
REMARK  191  A    between atoms: _482  and  _484
REMARK  192  A    between atoms: _484  and  _485
REMARK  193  A    between atoms: _484  and  _487
REMARK  194  A    between atoms: _487  and  _488
REMARK  195  A    between atoms: _488  and  _489
REMARK  196  A    between atoms: _489  and  _490
REMARK  197  A    between atoms: _490  and  _491
REMARK  198  A    between atoms: _495  and  _497
REMARK  199  A    between atoms: _497  and  _498
REMARK  200  A    between atoms: _497  and  _500
REMARK  201  A    between atoms: _500  and  _501
REMARK  202  A    between atoms: _504  and  _506
REMARK  203  A    between atoms: _506  and  _507
REMARK  204  A    between atoms: _506  and  _509
REMARK  205  A    between atoms: _512  and  _514
REMARK  206  A    between atoms: _514  and  _515
REMARK  207  A    between atoms: _514  and  _517
REMARK  208  A    between atoms: _517  and  _518
REMARK  209  A    between atoms: _521  and  _523
REMARK  210  A    between atoms: _523  and  _524
REMARK  211  A    between atoms: _523  and  _526
REMARK  212  A    between atoms: _526  and  _527
REMARK  213  A    between atoms: _529  and  _531
REMARK  214  A    between atoms: _531  and  _532
REMARK  215  A    between atoms: _534  and  _536
REMARK  216  A    between atoms: _536  and  _537
REMARK  217  A    between atoms: _536  and  _539
REMARK  218  A    between atoms: _539  and  _540
REMARK  219  A    between atoms: _543  and  _545
REMARK  220  A    between atoms: _545  and  _546
REMARK  221  A    between atoms: _545  and  _548
REMARK  222  A    between atoms: _548  and  _549
REMARK  223  A    between atoms: _552  and  _554
REMARK  224  A    between atoms: _554  and  _555
REMARK  225  A    between atoms: _554  and  _557
REMARK  226  A    between atoms: _557  and  _558
REMARK  227  A    between atoms: _563  and  _565
REMARK  228  A    between atoms: _565  and  _566
REMARK  229  A    between atoms: _565  and  _568
REMARK  230  A    between atoms: _568  and  _569
REMARK  231  A    between atoms: _572  and  _574
REMARK  232  A    between atoms: _574  and  _575
REMARK  233  A    between atoms: _574  and  _577
REMARK  234  A    between atoms: _577  and  _578
REMARK  235  A    between atoms: _578  and  _579
REMARK  236  A    between atoms: _579  and  _580
REMARK  237  A    between atoms: _589  and  _591
REMARK  238  A    between atoms: _591  and  _592
REMARK  239  A    between atoms: _591  and  _594
REMARK  240  A    between atoms: _594  and  _595
REMARK  241  A    between atoms: _598  and  _600
REMARK  242  A    between atoms: _600  and  _601
REMARK  243  A    between atoms: _600  and  _603
REMARK  244  A    between atoms: _603  and  _604
REMARK  245  A    between atoms: _604  and  _605
REMARK  246  A    between atoms: _605  and  _606
REMARK  247  A    between atoms: _615  and  _617
REMARK  248  A    between atoms: _617  and  _618
REMARK  249  A    between atoms: _617  and  _620
REMARK  250  A    between atoms: _620  and  _621
REMARK  251  A    between atoms: _621  and  _622
REMARK  252  A    between atoms: _622  and  _623
REMARK  253  A    between atoms: _623  and  _624
REMARK  254  A    between atoms: _628  and  _630
REMARK  255  A    between atoms: _630  and  _631
REMARK  256  A    between atoms: _630  and  _633
REMARK  257  A    between atoms: _633  and  _634
REMARK  258  A    between atoms: _640  and  _642
REMARK  259  A    between atoms: _642  and  _643
REMARK  260  A    between atoms: _646  and  _648
REMARK  261  A    between atoms: _648  and  _649
REMARK  262  A    between atoms: _648  and  _651
REMARK  263  A    between atoms: _651  and  _652
REMARK  264  A    between atoms: _655  and  _657
REMARK  265  A    between atoms: _657  and  _658
REMARK  266  A    between atoms: _657  and  _660
REMARK  267  A    between atoms: _660  and  _661
REMARK  268  A    between atoms: _663  and  _665
REMARK  269  A    between atoms: _665  and  _666
REMARK  270  A    between atoms: _665  and  _668
REMARK  271  A    between atoms: _668  and  _669
REMARK  272  A    between atoms: _669  and  _670
REMARK  273  A    between atoms: _675  and  _677
REMARK  274  A    between atoms: _677  and  _678
REMARK  275  A    between atoms: _677  and  _680
REMARK  276  A    between atoms: _680  and  _681
REMARK  277  A    between atoms: _683  and  _685
REMARK  278  A    between atoms: _685  and  _686
REMARK  279  A    between atoms: _685  and  _688
REMARK  280  A    between atoms: _688  and  _689
REMARK  281  A    between atoms: _691  and  _693
REMARK  282  A    between atoms: _693  and  _694
REMARK  283  A    between atoms: _693  and  _696
REMARK  284  A    between atoms: _696  and  _697
REMARK  285  A    between atoms: _700  and  _702
REMARK  286  A    between atoms: _702  and  _703
REMARK  287  A    between atoms: _705  and  _707
REMARK  288  A    between atoms: _707  and  _708
REMARK  289  A    between atoms: _707  and  _710
REMARK  290  A    between atoms: _710  and  _711
REMARK  291  A    between atoms: _714  and  _716
REMARK  292  A    between atoms: _716  and  _717
REMARK  293  A    between atoms: _716  and  _719
REMARK  294  A    between atoms: _722  and  _724
REMARK  295  A    between atoms: _724  and  _725
REMARK  296  A    between atoms: _724  and  _727
REMARK  297  A    between atoms: _727  and  _728
REMARK  298  A    between atoms: _728  and  _729
REMARK  299  A    between atoms: _731  and  _733
REMARK  300  A    between atoms: _733  and  _734
REMARK  301  A    between atoms: _736  and  _738
REMARK  302  A    between atoms: _738  and  _739
REMARK  303  A    between atoms: _742  and  _744
REMARK  304  A    between atoms: _744  and  _745
REMARK  305  A    between atoms: _744  and  _747
REMARK  306  A    between atoms: _750  and  _752
REMARK  307  A    between atoms: _752  and  _753
REMARK  308  A    between atoms: _752  and  _755
REMARK  309  A    between atoms: _755  and  _756
REMARK  310  A    between atoms: _756  and  _757
REMARK                            x       y       z     vdW  Elec       q    Type
REMARK                         _______ _______ _______ _____ _____    ______ ____
ROOT
ATOM      1  O   HOH     1      -8.762  19.202  36.918  0.00  0.00    +0.000 OA
ENDROOT
TORSDOF 0
REMARK  Name = ../refined-set-2016/3i25/3i25_pocket.pdb
REMARK  310 active torsions:
REMARK  status: ('A' for Active; 'I' for Inactive)
REMARK    1  A    between atoms: _1  and  _3
REMARK    2  A    between atoms: _3  and  _4
REMARK    3  A    between atoms: _3  and  _6
REMARK    4  A    between atoms: _6  and  _7
REMARK    5  A    between atoms: _7  and  _8
REMARK    6  A    between atoms: _8  and  _9
REMARK    7  A    between atoms: _9  and  _10
REMARK    8  A    between atoms: _14  and  _16
REMARK    9  A    between atoms: _16  and  _17
REMARK   10  A    between atoms: _16  and  _19
REMARK   11  A    between atoms: _19  and  _20
REMARK   12  A    between atoms: _22  and  _24
REMARK   13  A    between atoms: _24  and  _25
REMARK   14  A    between atoms: _27  and  _29
REMARK   15  A    between atoms: _29  and  _30
REMARK   16  A    between atoms: _29  and  _32
REMARK   17  A    between atoms: _32  and  _33
REMARK   18  A    between atoms: _33  and  _34
REMARK   19  A    between atoms: _39  and  _41
REMARK   20  A    between atoms: _41  and  _42
REMARK   21  A    between atoms: _44  and  _46
REMARK   22  A    between atoms: _46  and  _47
REMARK   23  A    between atoms: _46  and  _49
REMARK   24  A    between atoms: _49  and  _50
REMARK   25  A    between atoms: _55  and  _56
REMARK   26  A    between atoms: _58  and  _60
REMARK   27  A    between atoms: _60  and  _61
REMARK   28  A    between atoms: _60  and  _63
REMARK   29  A    between atoms: _63  and  _64
REMARK   30  A    between atoms: _67  and  _69
REMARK   31  A    between atoms: _69  and  _70
REMARK   32  A    between atoms: _69  and  _72
REMARK   33  A    between atoms: _75  and  _77
REMARK   34  A    between atoms: _77  and  _78
REMARK   35  A    between atoms: _77  and  _80
REMARK   36  A    between atoms: _80  and  _81
REMARK   37  A    between atoms: _84  and  _86
REMARK   38  A    between atoms: _86  and  _87
REMARK   39  A    between atoms: _86  and  _89
REMARK   40  A    between atoms: _89  and  _90
REMARK   41  A    between atoms: _93  and  _95
REMARK   42  A    between atoms: _95  and  _96
REMARK   43  A    between atoms: _98  and  _100
REMARK   44  A    between atoms: _100  and  _101
REMARK   45  A    between atoms: _100  and  _103
REMARK   46  A    between atoms: _103  and  _104
REMARK   47  A    between atoms: _106  and  _108
REMARK   48  A    between atoms: _108  and  _109
REMARK   49  A    between atoms: _108  and  _111
REMARK   50  A    between atoms: _111  and  _112
REMARK   51  A    between atoms: _114  and  _116
REMARK   52  A    between atoms: _116  and  _117
REMARK   53  A    between atoms: _116  and  _119
REMARK   54  A    between atoms: _119  and  _120
REMARK   55  A    between atoms: _125  and  _127
REMARK   56  A    between atoms: _127  and  _128
REMARK   57  A    between atoms: _127  and  _130
REMARK   58  A    between atoms: _130  and  _131
REMARK   59  A    between atoms: _136  and  _137
REMARK   60  A    between atoms: _139  and  _141
REMARK   61  A    between atoms: _141  and  _142
REMARK   62  A    between atoms: _141  and  _144
REMARK   63  A    between atoms: _148  and  _149
REMARK   64  A    between atoms: _154  and  _156
REMARK   65  A    between atoms: _156  and  _157
REMARK   66  A    between atoms: _156  and  _159
REMARK   67  A    between atoms: _159  and  _160
REMARK   68  A    between atoms: _165  and  _166
REMARK   69  A    between atoms: _168  and  _170
REMARK   70  A    between atoms: _170  and  _171
REMARK   71  A    between atoms: _170  and  _173
REMARK   72  A    between atoms: _173  and  _174
REMARK   73  A    between atoms: _177  and  _179
REMARK   74  A    between atoms: _179  and  _180
REMARK   75  A    between atoms: _179  and  _182
REMARK   76  A    between atoms: _182  and  _183
REMARK   77  A    between atoms: _183  and  _184
REMARK   78  A    between atoms: _189  and  _191
REMARK   79  A    between atoms: _191  and  _192
REMARK   80  A    between atoms: _194  and  _196
REMARK   81  A    between atoms: _196  and  _197
REMARK   82  A    between atoms: _196  and  _199
REMARK   83  A    between atoms: _199  and  _200
REMARK   84  A    between atoms: _200  and  _201
REMARK   85  A    between atoms: _201  and  _202
REMARK   86  A    between atoms: _202  and  _203
REMARK   87  A    between atoms: _207  and  _209
REMARK   88  A    between atoms: _209  and  _210
REMARK   89  A    between atoms: _209  and  _212
REMARK   90  A    between atoms: _212  and  _213
REMARK   91  A    between atoms: _223  and  _225
REMARK   92  A    between atoms: _225  and  _226
REMARK   93  A    between atoms: _225  and  _228
REMARK   94  A    between atoms: _228  and  _229
REMARK   95  A    between atoms: _232  and  _234
REMARK   96  A    between atoms: _234  and  _235
REMARK   97  A    between atoms: _234  and  _237
REMARK   98  A    between atoms: _237  and  _238
REMARK   99  A    between atoms: _238  and  _239
REMARK  100  A    between atoms: _239  and  _240
REMARK  101  A    between atoms: _240  and  _241
REMARK  102  A    between atoms: _245  and  _247
REMARK  103  A    between atoms: _247  and  _248
REMARK  104  A    between atoms: _247  and  _250
REMARK  105  A    between atoms: _250  and  _251
REMARK  106  A    between atoms: _257  and  _259
REMARK  107  A    between atoms: _259  and  _260
REMARK  108  A    between atoms: _259  and  _262
REMARK  109  A    between atoms: _262  and  _263
REMARK  110  A    between atoms: _269  and  _271
REMARK  111  A    between atoms: _271  and  _272
REMARK  112  A    between atoms: _271  and  _274
REMARK  113  A    between atoms: _274  and  _275
REMARK  114  A    between atoms: _278  and  _280
REMARK  115  A    between atoms: _280  and  _281
REMARK  116  A    between atoms: _280  and  _283
REMARK  117  A    between atoms: _283  and  _284
REMARK  118  A    between atoms: _289  and  _291
REMARK  119  A    between atoms: _291  and  _292
REMARK  120  A    between atoms: _291  and  _294
REMARK  121  A    between atoms: _294  and  _295
REMARK  122  A    between atoms: _297  and  _299
REMARK  123  A    between atoms: _299  and  _300
REMARK  124  A    between atoms: _299  and  _302
REMARK  125  A    between atoms: _302  and  _303
REMARK  126  A    between atoms: _313  and  _315
REMARK  127  A    between atoms: _315  and  _316
REMARK  128  A    between atoms: _318  and  _320
REMARK  129  A    between atoms: _320  and  _321
REMARK  130  A    between atoms: _320  and  _323
REMARK  131  A    between atoms: _323  and  _324
REMARK  132  A    between atoms: _327  and  _329
REMARK  133  A    between atoms: _329  and  _330
REMARK  134  A    between atoms: _329  and  _332
REMARK  135  A    between atoms: _332  and  _333
REMARK  136  A    between atoms: _336  and  _338
REMARK  137  A    between atoms: _338  and  _339
REMARK  138  A    between atoms: _341  and  _343
REMARK  139  A    between atoms: _343  and  _344
REMARK  140  A    between atoms: _343  and  _346
REMARK  141  A    between atoms: _346  and  _347
REMARK  142  A    between atoms: _350  and  _352
REMARK  143  A    between atoms: _352  and  _353
REMARK  144  A    between atoms: _356  and  _358
REMARK  145  A    between atoms: _358  and  _359
REMARK  146  A    between atoms: _358  and  _361
REMARK  147  A    between atoms: _361  and  _362
REMARK  148  A    between atoms: _367  and  _368
REMARK  149  A    between atoms: _370  and  _372
REMARK  150  A    between atoms: _372  and  _373
REMARK  151  A    between atoms: _372  and  _375
REMARK  152  A    between atoms: _375  and  _376
REMARK  153  A    between atoms: _376  and  _377
REMARK  154  A    between atoms: _380  and  _382
REMARK  155  A    between atoms: _382  and  _383
REMARK  156  A    between atoms: _382  and  _385
REMARK  157  A    between atoms: _385  and  _386
REMARK  158  A    between atoms: _389  and  _391
REMARK  159  A    between atoms: _391  and  _392
REMARK  160  A    between atoms: _395  and  _397
REMARK  161  A    between atoms: _397  and  _398
REMARK  162  A    between atoms: _397  and  _400
REMARK  163  A    between atoms: _400  and  _401
REMARK  164  A    between atoms: _401  and  _402
REMARK  165  A    between atoms: _402  and  _403
REMARK  166  A    between atoms: _412  and  _414
REMARK  167  A    between atoms: _414  and  _415
REMARK  168  A    between atoms: _414  and  _417
REMARK  169  A    between atoms: _417  and  _418
REMARK  170  A    between atoms: _421  and  _423
REMARK  171  A    between atoms: _423  and  _424
REMARK  172  A    between atoms: _423  and  _426
REMARK  173  A    between atoms: _429  and  _431
REMARK  174  A    between atoms: _431  and  _432
REMARK  175  A    between atoms: _431  and  _434
REMARK  176  A    between atoms: _434  and  _435
REMARK  177  A    between atoms: _445  and  _447
REMARK  178  A    between atoms: _447  and  _448
REMARK  179  A    between atoms: _447  and  _450
REMARK  180  A    between atoms: _450  and  _451
REMARK  181  A    between atoms: _456  and  _457
REMARK  182  A    between atoms: _459  and  _461
REMARK  183  A    between atoms: _461  and  _462
REMARK  184  A    between atoms: _461  and  _464
REMARK  185  A    between atoms: _464  and  _465
REMARK  186  A    between atoms: _470  and  _471
REMARK  187  A    between atoms: _473  and  _475
REMARK  188  A    between atoms: _475  and  _476
REMARK  189  A    between atoms: _475  and  _478
REMARK  190  A    between atoms: _478  and  _479
REMARK  191  A    between atoms: _482  and  _484
REMARK  192  A    between atoms: _484  and  _485
REMARK  193  A    between atoms: _484  and  _487
REMARK  194  A    between atoms: _487  and  _488
REMARK  195  A    between atoms: _488  and  _489
REMARK  196  A    between atoms: _489  and  _490
REMARK  197  A    between atoms: _490  and  _491
REMARK  198  A    between atoms: _495  and  _497
REMARK  199  A    between atoms: _497  and  _498
REMARK  200  A    between atoms: _497  and  _500
REMARK  201  A    between atoms: _500  and  _501
REMARK  202  A    between atoms: _504  and  _506
REMARK  203  A    between atoms: _506  and  _507
REMARK  204  A    between atoms: _506  and  _509
REMARK  205  A    between atoms: _512  and  _514
REMARK  206  A    between atoms: _514  and  _515
REMARK  207  A    between atoms: _514  and  _517
REMARK  208  A    between atoms: _517  and  _518
REMARK  209  A    between atoms: _521  and  _523
REMARK  210  A    between atoms: _523  and  _524
REMARK  211  A    between atoms: _523  and  _526
REMARK  212  A    between atoms: _526  and  _527
REMARK  213  A    between atoms: _529  and  _531
REMARK  214  A    between atoms: _531  and  _532
REMARK  215  A    between atoms: _534  and  _536
REMARK  216  A    between atoms: _536  and  _537
REMARK  217  A    between atoms: _536  and  _539
REMARK  218  A    between atoms: _539  and  _540
REMARK  219  A    between atoms: _543  and  _545
REMARK  220  A    between atoms: _545  and  _546
REMARK  221  A    between atoms: _545  and  _548
REMARK  222  A    between atoms: _548  and  _549
REMARK  223  A    between atoms: _552  and  _554
REMARK  224  A    between atoms: _554  and  _555
REMARK  225  A    between atoms: _554  and  _557
REMARK  226  A    between atoms: _557  and  _558
REMARK  227  A    between atoms: _563  and  _565
REMARK  228  A    between atoms: _565  and  _566
REMARK  229  A    between atoms: _565  and  _568
REMARK  230  A    between atoms: _568  and  _569
REMARK  231  A    between atoms: _572  and  _574
REMARK  232  A    between atoms: _574  and  _575
REMARK  233  A    between atoms: _574  and  _577
REMARK  234  A    between atoms: _577  and  _578
REMARK  235  A    between atoms: _578  and  _579
REMARK  236  A    between atoms: _579  and  _580
REMARK  237  A    between atoms: _589  and  _591
REMARK  238  A    between atoms: _591  and  _592
REMARK  239  A    between atoms: _591  and  _594
REMARK  240  A    between atoms: _594  and  _595
REMARK  241  A    between atoms: _598  and  _600
REMARK  242  A    between atoms: _600  and  _601
REMARK  243  A    between atoms: _600  and  _603
REMARK  244  A    between atoms: _603  and  _604
REMARK  245  A    between atoms: _604  and  _605
REMARK  246  A    between atoms: _605  and  _606
REMARK  247  A    between atoms: _615  and  _617
REMARK  248  A    between atoms: _617  and  _618
REMARK  249  A    between atoms: _617  and  _620
REMARK  250  A    between atoms: _620  and  _621
REMARK  251  A    between atoms: _621  and  _622
REMARK  252  A    between atoms: _622  and  _623
REMARK  253  A    between atoms: _623  and  _624
REMARK  254  A    between atoms: _628  and  _630
REMARK  255  A    between atoms: _630  and  _631
REMARK  256  A    between atoms: _630  and  _633
REMARK  257  A    between atoms: _633  and  _634
REMARK  258  A    between atoms: _640  and  _642
REMARK  259  A    between atoms: _642  and  _643
REMARK  260  A    between atoms: _646  and  _648
REMARK  261  A    between atoms: _648  and  _649
REMARK  262  A    between atoms: _648  and  _651
REMARK  263  A    between atoms: _651  and  _652
REMARK  264  A    between atoms: _655  and  _657
REMARK  265  A    between atoms: _657  and  _658
REMARK  266  A    between atoms: _657  and  _660
REMARK  267  A    between atoms: _660  and  _661
REMARK  268  A    between atoms: _663  and  _665
REMARK  269  A    between atoms: _665  and  _666
REMARK  270  A    between atoms: _665  and  _668
REMARK  271  A    between atoms: _668  and  _669
REMARK  272  A    between atoms: _669  and  _670
REMARK  273  A    between atoms: _675  and  _677
REMARK  274  A    between atoms: _677  and  _678
REMARK  275  A    between atoms: _677  and  _680
REMARK  276  A    between atoms: _680  and  _681
REMARK  277  A    between atoms: _683  and  _685
REMARK  278  A    between atoms: _685  and  _686
REMARK  279  A    between atoms: _685  and  _688
REMARK  280  A    between atoms: _688  and  _689
REMARK  281  A    between atoms: _691  and  _693
REMARK  282  A    between atoms: _693  and  _694
REMARK  283  A    between atoms: _693  and  _696
REMARK  284  A    between atoms: _696  and  _697
REMARK  285  A    between atoms: _700  and  _702
REMARK  286  A    between atoms: _702  and  _703
REMARK  287  A    between atoms: _705  and  _707
REMARK  288  A    between atoms: _707  and  _708
REMARK  289  A    between atoms: _707  and  _710
REMARK  290  A    between atoms: _710  and  _711
REMARK  291  A    between atoms: _714  and  _716
REMARK  292  A    between atoms: _716  and  _717
REMARK  293  A    between atoms: _716  and  _719
REMARK  294  A    between atoms: _722  and  _724
REMARK  295  A    between atoms: _724  and  _725
REMARK  296  A    between atoms: _724  and  _727
REMARK  297  A    between atoms: _727  and  _728
REMARK  298  A    between atoms: _728  and  _729
REMARK  299  A    between atoms: _731  and  _733
REMARK  300  A    between atoms: _733  and  _734
REMARK  301  A    between atoms: _736  and  _738
REMARK  302  A    between atoms: _738  and  _739
REMARK  303  A    between atoms: _742  and  _744
REMARK  304  A    between atoms: _744  and  _745
REMARK  305  A    between atoms: _744  and  _747
REMARK  306  A    between atoms: _750  and  _752
REMARK  307  A    between atoms: _752  and  _753
REMARK  308  A    between atoms: _752  and  _755
REMARK  309  A    between atoms: _755  and  _756
REMARK  310  A    between atoms: _756  and  _757
REMARK                            x       y       z     vdW  Elec       q    Type
REMARK                         _______ _______ _______ _____ _____    ______ ____
ROOT
ATOM      1  O   HOH     1      -0.707  29.639  34.689  0.00  0.00    +0.000 OA
ENDROOT
TORSDOF 0
REMARK  Name = ../refined-set-2016/3i25/3i25_pocket.pdb
REMARK  310 active torsions:
REMARK  status: ('A' for Active; 'I' for Inactive)
REMARK    1  A    between atoms: _1  and  _3
REMARK    2  A    between atoms: _3  and  _4
REMARK    3  A    between atoms: _3  and  _6
REMARK    4  A    between atoms: _6  and  _7
REMARK    5  A    between atoms: _7  and  _8
REMARK    6  A    between atoms: _8  and  _9
REMARK    7  A    between atoms: _9  and  _10
REMARK    8  A    between atoms: _14  and  _16
REMARK    9  A    between atoms: _16  and  _17
REMARK   10  A    between atoms: _16  and  _19
REMARK   11  A    between atoms: _19  and  _20
REMARK   12  A    between atoms: _22  and  _24
REMARK   13  A    between atoms: _24  and  _25
REMARK   14  A    between atoms: _27  and  _29
REMARK   15  A    between atoms: _29  and  _30
REMARK   16  A    between atoms: _29  and  _32
REMARK   17  A    between atoms: _32  and  _33
REMARK   18  A    between atoms: _33  and  _34
REMARK   19  A    between atoms: _39  and  _41
REMARK   20  A    between atoms: _41  and  _42
REMARK   21  A    between atoms: _44  and  _46
REMARK   22  A    between atoms: _46  and  _47
REMARK   23  A    between atoms: _46  and  _49
REMARK   24  A    between atoms: _49  and  _50
REMARK   25  A    between atoms: _55  and  _56
REMARK   26  A    between atoms: _58  and  _60
REMARK   27  A    between atoms: _60  and  _61
REMARK   28  A    between atoms: _60  and  _63
REMARK   29  A    between atoms: _63  and  _64
REMARK   30  A    between atoms: _67  and  _69
REMARK   31  A    between atoms: _69  and  _70
REMARK   32  A    between atoms: _69  and  _72
REMARK   33  A    between atoms: _75  and  _77
REMARK   34  A    between atoms: _77  and  _78
REMARK   35  A    between atoms: _77  and  _80
REMARK   36  A    between atoms: _80  and  _81
REMARK   37  A    between atoms: _84  and  _86
REMARK   38  A    between atoms: _86  and  _87
REMARK   39  A    between atoms: _86  and  _89
REMARK   40  A    between atoms: _89  and  _90
REMARK   41  A    between atoms: _93  and  _95
REMARK   42  A    between atoms: _95  and  _96
REMARK   43  A    between atoms: _98  and  _100
REMARK   44  A    between atoms: _100  and  _101
REMARK   45  A    between atoms: _100  and  _103
REMARK   46  A    between atoms: _103  and  _104
REMARK   47  A    between atoms: _106  and  _108
REMARK   48  A    between atoms: _108  and  _109
REMARK   49  A    between atoms: _108  and  _111
REMARK   50  A    between atoms: _111  and  _112
REMARK   51  A    between atoms: _114  and  _116
REMARK   52  A    between atoms: _116  and  _117
REMARK   53  A    between atoms: _116  and  _119
REMARK   54  A    between atoms: _119  and  _120
REMARK   55  A    between atoms: _125  and  _127
REMARK   56  A    between atoms: _127  and  _128
REMARK   57  A    between atoms: _127  and  _130
REMARK   58  A    between atoms: _130  and  _131
REMARK   59  A    between atoms: _136  and  _137
REMARK   60  A    between atoms: _139  and  _141
REMARK   61  A    between atoms: _141  and  _142
REMARK   62  A    between atoms: _141  and  _144
REMARK   63  A    between atoms: _148  and  _149
REMARK   64  A    between atoms: _154  and  _156
REMARK   65  A    between atoms: _156  and  _157
REMARK   66  A    between atoms: _156  and  _159
REMARK   67  A    between atoms: _159  and  _160
REMARK   68  A    between atoms: _165  and  _166
REMARK   69  A    between atoms: _168  and  _170
REMARK   70  A    between atoms: _170  and  _171
REMARK   71  A    between atoms: _170  and  _173
REMARK   72  A    between atoms: _173  and  _174
REMARK   73  A    between atoms: _177  and  _179
REMARK   74  A    between atoms: _179  and  _180
REMARK   75  A    between atoms: _179  and  _182
REMARK   76  A    between atoms: _182  and  _183
REMARK   77  A    between atoms: _183  and  _184
REMARK   78  A    between atoms: _189  and  _191
REMARK   79  A    between atoms: _191  and  _192
REMARK   80  A    between atoms: _194  and  _196
REMARK   81  A    between atoms: _196  and  _197
REMARK   82  A    between atoms: _196  and  _199
REMARK   83  A    between atoms: _199  and  _200
REMARK   84  A    between atoms: _200  and  _201
REMARK   85  A    between atoms: _201  and  _202
REMARK   86  A    between atoms: _202  and  _203
REMARK   87  A    between atoms: _207  and  _209
REMARK   88  A    between atoms: _209  and  _210
REMARK   89  A    between atoms: _209  and  _212
REMARK   90  A    between atoms: _212  and  _213
REMARK   91  A    between atoms: _223  and  _225
REMARK   92  A    between atoms: _225  and  _226
REMARK   93  A    between atoms: _225  and  _228
REMARK   94  A    between atoms: _228  and  _229
REMARK   95  A    between atoms: _232  and  _234
REMARK   96  A    between atoms: _234  and  _235
REMARK   97  A    between atoms: _234  and  _237
REMARK   98  A    between atoms: _237  and  _238
REMARK   99  A    between atoms: _238  and  _239
REMARK  100  A    between atoms: _239  and  _240
REMARK  101  A    between atoms: _240  and  _241
REMARK  102  A    between atoms: _245  and  _247
REMARK  103  A    between atoms: _247  and  _248
REMARK  104  A    between atoms: _247  and  _250
REMARK  105  A    between atoms: _250  and  _251
REMARK  106  A    between atoms: _257  and  _259
REMARK  107  A    between atoms: _259  and  _260
REMARK  108  A    between atoms: _259  and  _262
REMARK  109  A    between atoms: _262  and  _263
REMARK  110  A    between atoms: _269  and  _271
REMARK  111  A    between atoms: _271  and  _272
REMARK  112  A    between atoms: _271  and  _274
REMARK  113  A    between atoms: _274  and  _275
REMARK  114  A    between atoms: _278  and  _280
REMARK  115  A    between atoms: _280  and  _281
REMARK  116  A    between atoms: _280  and  _283
REMARK  117  A    between atoms: _283  and  _284
REMARK  118  A    between atoms: _289  and  _291
REMARK  119  A    between atoms: _291  and  _292
REMARK  120  A    between atoms: _291  and  _294
REMARK  121  A    between atoms: _294  and  _295
REMARK  122  A    between atoms: _297  and  _299
REMARK  123  A    between atoms: _299  and  _300
REMARK  124  A    between atoms: _299  and  _302
REMARK  125  A    between atoms: _302  and  _303
REMARK  126  A    between atoms: _313  and  _315
REMARK  127  A    between atoms: _315  and  _316
REMARK  128  A    between atoms: _318  and  _320
REMARK  129  A    between atoms: _320  and  _321
REMARK  130  A    between atoms: _320  and  _323
REMARK  131  A    between atoms: _323  and  _324
REMARK  132  A    between atoms: _327  and  _329
REMARK  133  A    between atoms: _329  and  _330
REMARK  134  A    between atoms: _329  and  _332
REMARK  135  A    between atoms: _332  and  _333
REMARK  136  A    between atoms: _336  and  _338
REMARK  137  A    between atoms: _338  and  _339
REMARK  138  A    between atoms: _341  and  _343
REMARK  139  A    between atoms: _343  and  _344
REMARK  140  A    between atoms: _343  and  _346
REMARK  141  A    between atoms: _346  and  _347
REMARK  142  A    between atoms: _350  and  _352
REMARK  143  A    between atoms: _352  and  _353
REMARK  144  A    between atoms: _356  and  _358
REMARK  145  A    between atoms: _358  and  _359
REMARK  146  A    between atoms: _358  and  _361
REMARK  147  A    between atoms: _361  and  _362
REMARK  148  A    between atoms: _367  and  _368
REMARK  149  A    between atoms: _370  and  _372
REMARK  150  A    between atoms: _372  and  _373
REMARK  151  A    between atoms: _372  and  _375
REMARK  152  A    between atoms: _375  and  _376
REMARK  153  A    between atoms: _376  and  _377
REMARK  154  A    between atoms: _380  and  _382
REMARK  155  A    between atoms: _382  and  _383
REMARK  156  A    between atoms: _382  and  _385
REMARK  157  A    between atoms: _385  and  _386
REMARK  158  A    between atoms: _389  and  _391
REMARK  159  A    between atoms: _391  and  _392
REMARK  160  A    between atoms: _395  and  _397
REMARK  161  A    between atoms: _397  and  _398
REMARK  162  A    between atoms: _397  and  _400
REMARK  163  A    between atoms: _400  and  _401
REMARK  164  A    between atoms: _401  and  _402
REMARK  165  A    between atoms: _402  and  _403
REMARK  166  A    between atoms: _412  and  _414
REMARK  167  A    between atoms: _414  and  _415
REMARK  168  A    between atoms: _414  and  _417
REMARK  169  A    between atoms: _417  and  _418
REMARK  170  A    between atoms: _421  and  _423
REMARK  171  A    between atoms: _423  and  _424
REMARK  172  A    between atoms: _423  and  _426
REMARK  173  A    between atoms: _429  and  _431
REMARK  174  A    between atoms: _431  and  _432
REMARK  175  A    between atoms: _431  and  _434
REMARK  176  A    between atoms: _434  and  _435
REMARK  177  A    between atoms: _445  and  _447
REMARK  178  A    between atoms: _447  and  _448
REMARK  179  A    between atoms: _447  and  _450
REMARK  180  A    between atoms: _450  and  _451
REMARK  181  A    between atoms: _456  and  _457
REMARK  182  A    between atoms: _459  and  _461
REMARK  183  A    between atoms: _461  and  _462
REMARK  184  A    between atoms: _461  and  _464
REMARK  185  A    between atoms: _464  and  _465
REMARK  186  A    between atoms: _470  and  _471
REMARK  187  A    between atoms: _473  and  _475
REMARK  188  A    between atoms: _475  and  _476
REMARK  189  A    between atoms: _475  and  _478
REMARK  190  A    between atoms: _478  and  _479
REMARK  191  A    between atoms: _482  and  _484
REMARK  192  A    between atoms: _484  and  _485
REMARK  193  A    between atoms: _484  and  _487
REMARK  194  A    between atoms: _487  and  _488
REMARK  195  A    between atoms: _488  and  _489
REMARK  196  A    between atoms: _489  and  _490
REMARK  197  A    between atoms: _490  and  _491
REMARK  198  A    between atoms: _495  and  _497
REMARK  199  A    between atoms: _497  and  _498
REMARK  200  A    between atoms: _497  and  _500
REMARK  201  A    between atoms: _500  and  _501
REMARK  202  A    between atoms: _504  and  _506
REMARK  203  A    between atoms: _506  and  _507
REMARK  204  A    between atoms: _506  and  _509
REMARK  205  A    between atoms: _512  and  _514
REMARK  206  A    between atoms: _514  and  _515
REMARK  207  A    between atoms: _514  and  _517
REMARK  208  A    between atoms: _517  and  _518
REMARK  209  A    between atoms: _521  and  _523
REMARK  210  A    between atoms: _523  and  _524
REMARK  211  A    between atoms: _523  and  _526
REMARK  212  A    between atoms: _526  and  _527
REMARK  213  A    between atoms: _529  and  _531
REMARK  214  A    between atoms: _531  and  _532
REMARK  215  A    between atoms: _534  and  _536
REMARK  216  A    between atoms: _536  and  _537
REMARK  217  A    between atoms: _536  and  _539
REMARK  218  A    between atoms: _539  and  _540
REMARK  219  A    between atoms: _543  and  _545
REMARK  220  A    between atoms: _545  and  _546
REMARK  221  A    between atoms: _545  and  _548
REMARK  222  A    between atoms: _548  and  _549
REMARK  223  A    between atoms: _552  and  _554
REMARK  224  A    between atoms: _554  and  _555
REMARK  225  A    between atoms: _554  and  _557
REMARK  226  A    between atoms: _557  and  _558
REMARK  227  A    between atoms: _563  and  _565
REMARK  228  A    between atoms: _565  and  _566
REMARK  229  A    between atoms: _565  and  _568
REMARK  230  A    between atoms: _568  and  _569
REMARK  231  A    between atoms: _572  and  _574
REMARK  232  A    between atoms: _574  and  _575
REMARK  233  A    between atoms: _574  and  _577
REMARK  234  A    between atoms: _577  and  _578
REMARK  235  A    between atoms: _578  and  _579
REMARK  236  A    between atoms: _579  and  _580
REMARK  237  A    between atoms: _589  and  _591
REMARK  238  A    between atoms: _591  and  _592
REMARK  239  A    between atoms: _591  and  _594
REMARK  240  A    between atoms: _594  and  _595
REMARK  241  A    between atoms: _598  and  _600
REMARK  242  A    between atoms: _600  and  _601
REMARK  243  A    between atoms: _600  and  _603
REMARK  244  A    between atoms: _603  and  _604
REMARK  245  A    between atoms: _604  and  _605
REMARK  246  A    between atoms: _605  and  _606
REMARK  247  A    between atoms: _615  and  _617
REMARK  248  A    between atoms: _617  and  _618
REMARK  249  A    between atoms: _617  and  _620
REMARK  250  A    between atoms: _620  and  _621
REMARK  251  A    between atoms: _621  and  _622
REMARK  252  A    between atoms: _622  and  _623
REMARK  253  A    between atoms: _623  and  _624
REMARK  254  A    between atoms: _628  and  _630
REMARK  255  A    between atoms: _630  and  _631
REMARK  256  A    between atoms: _630  and  _633
REMARK  257  A    between atoms: _633  and  _634
REMARK  258  A    between atoms: _640  and  _642
REMARK  259  A    between atoms: _642  and  _643
REMARK  260  A    between atoms: _646  and  _648
REMARK  261  A    between atoms: _648  and  _649
REMARK  262  A    between atoms: _648  and  _651
REMARK  263  A    between atoms: _651  and  _652
REMARK  264  A    between atoms: _655  and  _657
REMARK  265  A    between atoms: _657  and  _658
REMARK  266  A    between atoms: _657  and  _660
REMARK  267  A    between atoms: _660  and  _661
REMARK  268  A    between atoms: _663  and  _665
REMARK  269  A    between atoms: _665  and  _666
REMARK  270  A    between atoms: _665  and  _668
REMARK  271  A    between atoms: _668  and  _669
REMARK  272  A    between atoms: _669  and  _670
REMARK  273  A    between atoms: _675  and  _677
REMARK  274  A    between atoms: _677  and  _678
REMARK  275  A    between atoms: _677  and  _680
REMARK  276  A    between atoms: _680  and  _681
REMARK  277  A    between atoms: _683  and  _685
REMARK  278  A    between atoms: _685  and  _686
REMARK  279  A    between atoms: _685  and  _688
REMARK  280  A    between atoms: _688  and  _689
REMARK  281  A    between atoms: _691  and  _693
REMARK  282  A    between atoms: _693  and  _694
REMARK  283  A    between atoms: _693  and  _696
REMARK  284  A    between atoms: _696  and  _697
REMARK  285  A    between atoms: _700  and  _702
REMARK  286  A    between atoms: _702  and  _703
REMARK  287  A    between atoms: _705  and  _707
REMARK  288  A    between atoms: _707  and  _708
REMARK  289  A    between atoms: _707  and  _710
REMARK  290  A    between atoms: _710  and  _711
REMARK  291  A    between atoms: _714  and  _716
REMARK  292  A    between atoms: _716  and  _717
REMARK  293  A    between atoms: _716  and  _719
REMARK  294  A    between atoms: _722  and  _724
REMARK  295  A    between atoms: _724  and  _725
REMARK  296  A    between atoms: _724  and  _727
REMARK  297  A    between atoms: _727  and  _728
REMARK  298  A    between atoms: _728  and  _729
REMARK  299  A    between atoms: _731  and  _733
REMARK  300  A    between atoms: _733  and  _734
REMARK  301  A    between atoms: _736  and  _738
REMARK  302  A    between atoms: _738  and  _739
REMARK  303  A    between atoms: _742  and  _744
REMARK  304  A    between atoms: _744  and  _745
REMARK  305  A    between atoms: _744  and  _747
REMARK  306  A    between atoms: _750  and  _752
REMARK  307  A    between atoms: _752  and  _753
REMARK  308  A    between atoms: _752  and  _755
REMARK  309  A    between atoms: _755  and  _756
REMARK  310  A    between atoms: _756  and  _757
REMARK                            x       y       z     vdW  Elec       q    Type
REMARK                         _______ _______ _______ _____ _____    ______ ____
ROOT
ATOM      1  O   HOH     1      -4.028  23.708  22.017  0.00  0.00    +0.000 OA
ENDROOT
TORSDOF 0
REMARK  Name = ../refined-set-2016/3i25/3i25_pocket.pdb
REMARK  310 active torsions:
REMARK  status: ('A' for Active; 'I' for Inactive)
REMARK    1  A    between atoms: _1  and  _3
REMARK    2  A    between atoms: _3  and  _4
REMARK    3  A    between atoms: _3  and  _6
REMARK    4  A    between atoms: _6  and  _7
REMARK    5  A    between atoms: _7  and  _8
REMARK    6  A    between atoms: _8  and  _9
REMARK    7  A    between atoms: _9  and  _10
REMARK    8  A    between atoms: _14  and  _16
REMARK    9  A    between atoms: _16  and  _17
REMARK   10  A    between atoms: _16  and  _19
REMARK   11  A    between atoms: _19  and  _20
REMARK   12  A    between atoms: _22  and  _24
REMARK   13  A    between atoms: _24  and  _25
REMARK   14  A    between atoms: _27  and  _29
REMARK   15  A    between atoms: _29  and  _30
REMARK   16  A    between atoms: _29  and  _32
REMARK   17  A    between atoms: _32  and  _33
REMARK   18  A    between atoms: _33  and  _34
REMARK   19  A    between atoms: _39  and  _41
REMARK   20  A    between atoms: _41  and  _42
REMARK   21  A    between atoms: _44  and  _46
REMARK   22  A    between atoms: _46  and  _47
REMARK   23  A    between atoms: _46  and  _49
REMARK   24  A    between atoms: _49  and  _50
REMARK   25  A    between atoms: _55  and  _56
REMARK   26  A    between atoms: _58  and  _60
REMARK   27  A    between atoms: _60  and  _61
REMARK   28  A    between atoms: _60  and  _63
REMARK   29  A    between atoms: _63  and  _64
REMARK   30  A    between atoms: _67  and  _69
REMARK   31  A    between atoms: _69  and  _70
REMARK   32  A    between atoms: _69  and  _72
REMARK   33  A    between atoms: _75  and  _77
REMARK   34  A    between atoms: _77  and  _78
REMARK   35  A    between atoms: _77  and  _80
REMARK   36  A    between atoms: _80  and  _81
REMARK   37  A    between atoms: _84  and  _86
REMARK   38  A    between atoms: _86  and  _87
REMARK   39  A    between atoms: _86  and  _89
REMARK   40  A    between atoms: _89  and  _90
REMARK   41  A    between atoms: _93  and  _95
REMARK   42  A    between atoms: _95  and  _96
REMARK   43  A    between atoms: _98  and  _100
REMARK   44  A    between atoms: _100  and  _101
REMARK   45  A    between atoms: _100  and  _103
REMARK   46  A    between atoms: _103  and  _104
REMARK   47  A    between atoms: _106  and  _108
REMARK   48  A    between atoms: _108  and  _109
REMARK   49  A    between atoms: _108  and  _111
REMARK   50  A    between atoms: _111  and  _112
REMARK   51  A    between atoms: _114  and  _116
REMARK   52  A    between atoms: _116  and  _117
REMARK   53  A    between atoms: _116  and  _119
REMARK   54  A    between atoms: _119  and  _120
REMARK   55  A    between atoms: _125  and  _127
REMARK   56  A    between atoms: _127  and  _128
REMARK   57  A    between atoms: _127  and  _130
REMARK   58  A    between atoms: _130  and  _131
REMARK   59  A    between atoms: _136  and  _137
REMARK   60  A    between atoms: _139  and  _141
REMARK   61  A    between atoms: _141  and  _142
REMARK   62  A    between atoms: _141  and  _144
REMARK   63  A    between atoms: _148  and  _149
REMARK   64  A    between atoms: _154  and  _156
REMARK   65  A    between atoms: _156  and  _157
REMARK   66  A    between atoms: _156  and  _159
REMARK   67  A    between atoms: _159  and  _160
REMARK   68  A    between atoms: _165  and  _166
REMARK   69  A    between atoms: _168  and  _170
REMARK   70  A    between atoms: _170  and  _171
REMARK   71  A    between atoms: _170  and  _173
REMARK   72  A    between atoms: _173  and  _174
REMARK   73  A    between atoms: _177  and  _179
REMARK   74  A    between atoms: _179  and  _180
REMARK   75  A    between atoms: _179  and  _182
REMARK   76  A    between atoms: _182  and  _183
REMARK   77  A    between atoms: _183  and  _184
REMARK   78  A    between atoms: _189  and  _191
REMARK   79  A    between atoms: _191  and  _192
REMARK   80  A    between atoms: _194  and  _196
REMARK   81  A    between atoms: _196  and  _197
REMARK   82  A    between atoms: _196  and  _199
REMARK   83  A    between atoms: _199  and  _200
REMARK   84  A    between atoms: _200  and  _201
REMARK   85  A    between atoms: _201  and  _202
REMARK   86  A    between atoms: _202  and  _203
REMARK   87  A    between atoms: _207  and  _209
REMARK   88  A    between atoms: _209  and  _210
REMARK   89  A    between atoms: _209  and  _212
REMARK   90  A    between atoms: _212  and  _213
REMARK   91  A    between atoms: _223  and  _225
REMARK   92  A    between atoms: _225  and  _226
REMARK   93  A    between atoms: _225  and  _228
REMARK   94  A    between atoms: _228  and  _229
REMARK   95  A    between atoms: _232  and  _234
REMARK   96  A    between atoms: _234  and  _235
REMARK   97  A    between atoms: _234  and  _237
REMARK   98  A    between atoms: _237  and  _238
REMARK   99  A    between atoms: _238  and  _239
REMARK  100  A    between atoms: _239  and  _240
REMARK  101  A    between atoms: _240  and  _241
REMARK  102  A    between atoms: _245  and  _247
REMARK  103  A    between atoms: _247  and  _248
REMARK  104  A    between atoms: _247  and  _250
REMARK  105  A    between atoms: _250  and  _251
REMARK  106  A    between atoms: _257  and  _259
REMARK  107  A    between atoms: _259  and  _260
REMARK  108  A    between atoms: _259  and  _262
REMARK  109  A    between atoms: _262  and  _263
REMARK  110  A    between atoms: _269  and  _271
REMARK  111  A    between atoms: _271  and  _272
REMARK  112  A    between atoms: _271  and  _274
REMARK  113  A    between atoms: _274  and  _275
REMARK  114  A    between atoms: _278  and  _280
REMARK  115  A    between atoms: _280  and  _281
REMARK  116  A    between atoms: _280  and  _283
REMARK  117  A    between atoms: _283  and  _284
REMARK  118  A    between atoms: _289  and  _291
REMARK  119  A    between atoms: _291  and  _292
REMARK  120  A    between atoms: _291  and  _294
REMARK  121  A    between atoms: _294  and  _295
REMARK  122  A    between atoms: _297  and  _299
REMARK  123  A    between atoms: _299  and  _300
REMARK  124  A    between atoms: _299  and  _302
REMARK  125  A    between atoms: _302  and  _303
REMARK  126  A    between atoms: _313  and  _315
REMARK  127  A    between atoms: _315  and  _316
REMARK  128  A    between atoms: _318  and  _320
REMARK  129  A    between atoms: _320  and  _321
REMARK  130  A    between atoms: _320  and  _323
REMARK  131  A    between atoms: _323  and  _324
REMARK  132  A    between atoms: _327  and  _329
REMARK  133  A    between atoms: _329  and  _330
REMARK  134  A    between atoms: _329  and  _332
REMARK  135  A    between atoms: _332  and  _333
REMARK  136  A    between atoms: _336  and  _338
REMARK  137  A    between atoms: _338  and  _339
REMARK  138  A    between atoms: _341  and  _343
REMARK  139  A    between atoms: _343  and  _344
REMARK  140  A    between atoms: _343  and  _346
REMARK  141  A    between atoms: _346  and  _347
REMARK  142  A    between atoms: _350  and  _352
REMARK  143  A    between atoms: _352  and  _353
REMARK  144  A    between atoms: _356  and  _358
REMARK  145  A    between atoms: _358  and  _359
REMARK  146  A    between atoms: _358  and  _361
REMARK  147  A    between atoms: _361  and  _362
REMARK  148  A    between atoms: _367  and  _368
REMARK  149  A    between atoms: _370  and  _372
REMARK  150  A    between atoms: _372  and  _373
REMARK  151  A    between atoms: _372  and  _375
REMARK  152  A    between atoms: _375  and  _376
REMARK  153  A    between atoms: _376  and  _377
REMARK  154  A    between atoms: _380  and  _382
REMARK  155  A    between atoms: _382  and  _383
REMARK  156  A    between atoms: _382  and  _385
REMARK  157  A    between atoms: _385  and  _386
REMARK  158  A    between atoms: _389  and  _391
REMARK  159  A    between atoms: _391  and  _392
REMARK  160  A    between atoms: _395  and  _397
REMARK  161  A    between atoms: _397  and  _398
REMARK  162  A    between atoms: _397  and  _400
REMARK  163  A    between atoms: _400  and  _401
REMARK  164  A    between atoms: _401  and  _402
REMARK  165  A    between atoms: _402  and  _403
REMARK  166  A    between atoms: _412  and  _414
REMARK  167  A    between atoms: _414  and  _415
REMARK  168  A    between atoms: _414  and  _417
REMARK  169  A    between atoms: _417  and  _418
REMARK  170  A    between atoms: _421  and  _423
REMARK  171  A    between atoms: _423  and  _424
REMARK  172  A    between atoms: _423  and  _426
REMARK  173  A    between atoms: _429  and  _431
REMARK  174  A    between atoms: _431  and  _432
REMARK  175  A    between atoms: _431  and  _434
REMARK  176  A    between atoms: _434  and  _435
REMARK  177  A    between atoms: _445  and  _447
REMARK  178  A    between atoms: _447  and  _448
REMARK  179  A    between atoms: _447  and  _450
REMARK  180  A    between atoms: _450  and  _451
REMARK  181  A    between atoms: _456  and  _457
REMARK  182  A    between atoms: _459  and  _461
REMARK  183  A    between atoms: _461  and  _462
REMARK  184  A    between atoms: _461  and  _464
REMARK  185  A    between atoms: _464  and  _465
REMARK  186  A    between atoms: _470  and  _471
REMARK  187  A    between atoms: _473  and  _475
REMARK  188  A    between atoms: _475  and  _476
REMARK  189  A    between atoms: _475  and  _478
REMARK  190  A    between atoms: _478  and  _479
REMARK  191  A    between atoms: _482  and  _484
REMARK  192  A    between atoms: _484  and  _485
REMARK  193  A    between atoms: _484  and  _487
REMARK  194  A    between atoms: _487  and  _488
REMARK  195  A    between atoms: _488  and  _489
REMARK  196  A    between atoms: _489  and  _490
REMARK  197  A    between atoms: _490  and  _491
REMARK  198  A    between atoms: _495  and  _497
REMARK  199  A    between atoms: _497  and  _498
REMARK  200  A    between atoms: _497  and  _500
REMARK  201  A    between atoms: _500  and  _501
REMARK  202  A    between atoms: _504  and  _506
REMARK  203  A    between atoms: _506  and  _507
REMARK  204  A    between atoms: _506  and  _509
REMARK  205  A    between atoms: _512  and  _514
REMARK  206  A    between atoms: _514  and  _515
REMARK  207  A    between atoms: _514  and  _517
REMARK  208  A    between atoms: _517  and  _518
REMARK  209  A    between atoms: _521  and  _523
REMARK  210  A    between atoms: _523  and  _524
REMARK  211  A    between atoms: _523  and  _526
REMARK  212  A    between atoms: _526  and  _527
REMARK  213  A    between atoms: _529  and  _531
REMARK  214  A    between atoms: _531  and  _532
REMARK  215  A    between atoms: _534  and  _536
REMARK  216  A    between atoms: _536  and  _537
REMARK  217  A    between atoms: _536  and  _539
REMARK  218  A    between atoms: _539  and  _540
REMARK  219  A    between atoms: _543  and  _545
REMARK  220  A    between atoms: _545  and  _546
REMARK  221  A    between atoms: _545  and  _548
REMARK  222  A    between atoms: _548  and  _549
REMARK  223  A    between atoms: _552  and  _554
REMARK  224  A    between atoms: _554  and  _555
REMARK  225  A    between atoms: _554  and  _557
REMARK  226  A    between atoms: _557  and  _558
REMARK  227  A    between atoms: _563  and  _565
REMARK  228  A    between atoms: _565  and  _566
REMARK  229  A    between atoms: _565  and  _568
REMARK  230  A    between atoms: _568  and  _569
REMARK  231  A    between atoms: _572  and  _574
REMARK  232  A    between atoms: _574  and  _575
REMARK  233  A    between atoms: _574  and  _577
REMARK  234  A    between atoms: _577  and  _578
REMARK  235  A    between atoms: _578  and  _579
REMARK  236  A    between atoms: _579  and  _580
REMARK  237  A    between atoms: _589  and  _591
REMARK  238  A    between atoms: _591  and  _592
REMARK  239  A    between atoms: _591  and  _594
REMARK  240  A    between atoms: _594  and  _595
REMARK  241  A    between atoms: _598  and  _600
REMARK  242  A    between atoms: _600  and  _601
REMARK  243  A    between atoms: _600  and  _603
REMARK  244  A    between atoms: _603  and  _604
REMARK  245  A    between atoms: _604  and  _605
REMARK  246  A    between atoms: _605  and  _606
REMARK  247  A    between atoms: _615  and  _617
REMARK  248  A    between atoms: _617  and  _618
REMARK  249  A    between atoms: _617  and  _620
REMARK  250  A    between atoms: _620  and  _621
REMARK  251  A    between atoms: _621  and  _622
REMARK  252  A    between atoms: _622  and  _623
REMARK  253  A    between atoms: _623  and  _624
REMARK  254  A    between atoms: _628  and  _630
REMARK  255  A    between atoms: _630  and  _631
REMARK  256  A    between atoms: _630  and  _633
REMARK  257  A    between atoms: _633  and  _634
REMARK  258  A    between atoms: _640  and  _642
REMARK  259  A    between atoms: _642  and  _643
REMARK  260  A    between atoms: _646  and  _648
REMARK  261  A    between atoms: _648  and  _649
REMARK  262  A    between atoms: _648  and  _651
REMARK  263  A    between atoms: _651  and  _652
REMARK  264  A    between atoms: _655  and  _657
REMARK  265  A    between atoms: _657  and  _658
REMARK  266  A    between atoms: _657  and  _660
REMARK  267  A    between atoms: _660  and  _661
REMARK  268  A    between atoms: _663  and  _665
REMARK  269  A    between atoms: _665  and  _666
REMARK  270  A    between atoms: _665  and  _668
REMARK  271  A    between atoms: _668  and  _669
REMARK  272  A    between atoms: _669  and  _670
REMARK  273  A    between atoms: _675  and  _677
REMARK  274  A    between atoms: _677  and  _678
REMARK  275  A    between atoms: _677  and  _680
REMARK  276  A    between atoms: _680  and  _681
REMARK  277  A    between atoms: _683  and  _685
REMARK  278  A    between atoms: _685  and  _686
REMARK  279  A    between atoms: _685  and  _688
REMARK  280  A    between atoms: _688  and  _689
REMARK  281  A    between atoms: _691  and  _693
REMARK  282  A    between atoms: _693  and  _694
REMARK  283  A    between atoms: _693  and  _696
REMARK  284  A    between atoms: _696  and  _697
REMARK  285  A    between atoms: _700  and  _702
REMARK  286  A    between atoms: _702  and  _703
REMARK  287  A    between atoms: _705  and  _707
REMARK  288  A    between atoms: _707  and  _708
REMARK  289  A    between atoms: _707  and  _710
REMARK  290  A    between atoms: _710  and  _711
REMARK  291  A    between atoms: _714  and  _716
REMARK  292  A    between atoms: _716  and  _717
REMARK  293  A    between atoms: _716  and  _719
REMARK  294  A    between atoms: _722  and  _724
REMARK  295  A    between atoms: _724  and  _725
REMARK  296  A    between atoms: _724  and  _727
REMARK  297  A    between atoms: _727  and  _728
REMARK  298  A    between atoms: _728  and  _729
REMARK  299  A    between atoms: _731  and  _733
REMARK  300  A    between atoms: _733  and  _734
REMARK  301  A    between atoms: _736  and  _738
REMARK  302  A    between atoms: _738  and  _739
REMARK  303  A    between atoms: _742  and  _744
REMARK  304  A    between atoms: _744  and  _745
REMARK  305  A    between atoms: _744  and  _747
REMARK  306  A    between atoms: _750  and  _752
REMARK  307  A    between atoms: _752  and  _753
REMARK  308  A    between atoms: _752  and  _755
REMARK  309  A    between atoms: _755  and  _756
REMARK  310  A    between atoms: _756  and  _757
REMARK                            x       y       z     vdW  Elec       q    Type
REMARK                         _______ _______ _______ _____ _____    ______ ____
ROOT
ATOM      1  O   HOH     1       1.547  24.775  31.584  0.00  0.00    +0.000 OA
ENDROOT
TORSDOF 0
REMARK  Name = ../refined-set-2016/3i25/3i25_pocket.pdb
REMARK  310 active torsions:
REMARK  status: ('A' for Active; 'I' for Inactive)
REMARK    1  A    between atoms: _1  and  _3
REMARK    2  A    between atoms: _3  and  _4
REMARK    3  A    between atoms: _3  and  _6
REMARK    4  A    between atoms: _6  and  _7
REMARK    5  A    between atoms: _7  and  _8
REMARK    6  A    between atoms: _8  and  _9
REMARK    7  A    between atoms: _9  and  _10
REMARK    8  A    between atoms: _14  and  _16
REMARK    9  A    between atoms: _16  and  _17
REMARK   10  A    between atoms: _16  and  _19
REMARK   11  A    between atoms: _19  and  _20
REMARK   12  A    between atoms: _22  and  _24
REMARK   13  A    between atoms: _24  and  _25
REMARK   14  A    between atoms: _27  and  _29
REMARK   15  A    between atoms: _29  and  _30
REMARK   16  A    between atoms: _29  and  _32
REMARK   17  A    between atoms: _32  and  _33
REMARK   18  A    between atoms: _33  and  _34
REMARK   19  A    between atoms: _39  and  _41
REMARK   20  A    between atoms: _41  and  _42
REMARK   21  A    between atoms: _44  and  _46
REMARK   22  A    between atoms: _46  and  _47
REMARK   23  A    between atoms: _46  and  _49
REMARK   24  A    between atoms: _49  and  _50
REMARK   25  A    between atoms: _55  and  _56
REMARK   26  A    between atoms: _58  and  _60
REMARK   27  A    between atoms: _60  and  _61
REMARK   28  A    between atoms: _60  and  _63
REMARK   29  A    between atoms: _63  and  _64
REMARK   30  A    between atoms: _67  and  _69
REMARK   31  A    between atoms: _69  and  _70
REMARK   32  A    between atoms: _69  and  _72
REMARK   33  A    between atoms: _75  and  _77
REMARK   34  A    between atoms: _77  and  _78
REMARK   35  A    between atoms: _77  and  _80
REMARK   36  A    between atoms: _80  and  _81
REMARK   37  A    between atoms: _84  and  _86
REMARK   38  A    between atoms: _86  and  _87
REMARK   39  A    between atoms: _86  and  _89
REMARK   40  A    between atoms: _89  and  _90
REMARK   41  A    between atoms: _93  and  _95
REMARK   42  A    between atoms: _95  and  _96
REMARK   43  A    between atoms: _98  and  _100
REMARK   44  A    between atoms: _100  and  _101
REMARK   45  A    between atoms: _100  and  _103
REMARK   46  A    between atoms: _103  and  _104
REMARK   47  A    between atoms: _106  and  _108
REMARK   48  A    between atoms: _108  and  _109
REMARK   49  A    between atoms: _108  and  _111
REMARK   50  A    between atoms: _111  and  _112
REMARK   51  A    between atoms: _114  and  _116
REMARK   52  A    between atoms: _116  and  _117
REMARK   53  A    between atoms: _116  and  _119
REMARK   54  A    between atoms: _119  and  _120
REMARK   55  A    between atoms: _125  and  _127
REMARK   56  A    between atoms: _127  and  _128
REMARK   57  A    between atoms: _127  and  _130
REMARK   58  A    between atoms: _130  and  _131
REMARK   59  A    between atoms: _136  and  _137
REMARK   60  A    between atoms: _139  and  _141
REMARK   61  A    between atoms: _141  and  _142
REMARK   62  A    between atoms: _141  and  _144
REMARK   63  A    between atoms: _148  and  _149
REMARK   64  A    between atoms: _154  and  _156
REMARK   65  A    between atoms: _156  and  _157
REMARK   66  A    between atoms: _156  and  _159
REMARK   67  A    between atoms: _159  and  _160
REMARK   68  A    between atoms: _165  and  _166
REMARK   69  A    between atoms: _168  and  _170
REMARK   70  A    between atoms: _170  and  _171
REMARK   71  A    between atoms: _170  and  _173
REMARK   72  A    between atoms: _173  and  _174
REMARK   73  A    between atoms: _177  and  _179
REMARK   74  A    between atoms: _179  and  _180
REMARK   75  A    between atoms: _179  and  _182
REMARK   76  A    between atoms: _182  and  _183
REMARK   77  A    between atoms: _183  and  _184
REMARK   78  A    between atoms: _189  and  _191
REMARK   79  A    between atoms: _191  and  _192
REMARK   80  A    between atoms: _194  and  _196
REMARK   81  A    between atoms: _196  and  _197
REMARK   82  A    between atoms: _196  and  _199
REMARK   83  A    between atoms: _199  and  _200
REMARK   84  A    between atoms: _200  and  _201
REMARK   85  A    between atoms: _201  and  _202
REMARK   86  A    between atoms: _202  and  _203
REMARK   87  A    between atoms: _207  and  _209
REMARK   88  A    between atoms: _209  and  _210
REMARK   89  A    between atoms: _209  and  _212
REMARK   90  A    between atoms: _212  and  _213
REMARK   91  A    between atoms: _223  and  _225
REMARK   92  A    between atoms: _225  and  _226
REMARK   93  A    between atoms: _225  and  _228
REMARK   94  A    between atoms: _228  and  _229
REMARK   95  A    between atoms: _232  and  _234
REMARK   96  A    between atoms: _234  and  _235
REMARK   97  A    between atoms: _234  and  _237
REMARK   98  A    between atoms: _237  and  _238
REMARK   99  A    between atoms: _238  and  _239
REMARK  100  A    between atoms: _239  and  _240
REMARK  101  A    between atoms: _240  and  _241
REMARK  102  A    between atoms: _245  and  _247
REMARK  103  A    between atoms: _247  and  _248
REMARK  104  A    between atoms: _247  and  _250
REMARK  105  A    between atoms: _250  and  _251
REMARK  106  A    between atoms: _257  and  _259
REMARK  107  A    between atoms: _259  and  _260
REMARK  108  A    between atoms: _259  and  _262
REMARK  109  A    between atoms: _262  and  _263
REMARK  110  A    between atoms: _269  and  _271
REMARK  111  A    between atoms: _271  and  _272
REMARK  112  A    between atoms: _271  and  _274
REMARK  113  A    between atoms: _274  and  _275
REMARK  114  A    between atoms: _278  and  _280
REMARK  115  A    between atoms: _280  and  _281
REMARK  116  A    between atoms: _280  and  _283
REMARK  117  A    between atoms: _283  and  _284
REMARK  118  A    between atoms: _289  and  _291
REMARK  119  A    between atoms: _291  and  _292
REMARK  120  A    between atoms: _291  and  _294
REMARK  121  A    between atoms: _294  and  _295
REMARK  122  A    between atoms: _297  and  _299
REMARK  123  A    between atoms: _299  and  _300
REMARK  124  A    between atoms: _299  and  _302
REMARK  125  A    between atoms: _302  and  _303
REMARK  126  A    between atoms: _313  and  _315
REMARK  127  A    between atoms: _315  and  _316
REMARK  128  A    between atoms: _318  and  _320
REMARK  129  A    between atoms: _320  and  _321
REMARK  130  A    between atoms: _320  and  _323
REMARK  131  A    between atoms: _323  and  _324
REMARK  132  A    between atoms: _327  and  _329
REMARK  133  A    between atoms: _329  and  _330
REMARK  134  A    between atoms: _329  and  _332
REMARK  135  A    between atoms: _332  and  _333
REMARK  136  A    between atoms: _336  and  _338
REMARK  137  A    between atoms: _338  and  _339
REMARK  138  A    between atoms: _341  and  _343
REMARK  139  A    between atoms: _343  and  _344
REMARK  140  A    between atoms: _343  and  _346
REMARK  141  A    between atoms: _346  and  _347
REMARK  142  A    between atoms: _350  and  _352
REMARK  143  A    between atoms: _352  and  _353
REMARK  144  A    between atoms: _356  and  _358
REMARK  145  A    between atoms: _358  and  _359
REMARK  146  A    between atoms: _358  and  _361
REMARK  147  A    between atoms: _361  and  _362
REMARK  148  A    between atoms: _367  and  _368
REMARK  149  A    between atoms: _370  and  _372
REMARK  150  A    between atoms: _372  and  _373
REMARK  151  A    between atoms: _372  and  _375
REMARK  152  A    between atoms: _375  and  _376
REMARK  153  A    between atoms: _376  and  _377
REMARK  154  A    between atoms: _380  and  _382
REMARK  155  A    between atoms: _382  and  _383
REMARK  156  A    between atoms: _382  and  _385
REMARK  157  A    between atoms: _385  and  _386
REMARK  158  A    between atoms: _389  and  _391
REMARK  159  A    between atoms: _391  and  _392
REMARK  160  A    between atoms: _395  and  _397
REMARK  161  A    between atoms: _397  and  _398
REMARK  162  A    between atoms: _397  and  _400
REMARK  163  A    between atoms: _400  and  _401
REMARK  164  A    between atoms: _401  and  _402
REMARK  165  A    between atoms: _402  and  _403
REMARK  166  A    between atoms: _412  and  _414
REMARK  167  A    between atoms: _414  and  _415
REMARK  168  A    between atoms: _414  and  _417
REMARK  169  A    between atoms: _417  and  _418
REMARK  170  A    between atoms: _421  and  _423
REMARK  171  A    between atoms: _423  and  _424
REMARK  172  A    between atoms: _423  and  _426
REMARK  173  A    between atoms: _429  and  _431
REMARK  174  A    between atoms: _431  and  _432
REMARK  175  A    between atoms: _431  and  _434
REMARK  176  A    between atoms: _434  and  _435
REMARK  177  A    between atoms: _445  and  _447
REMARK  178  A    between atoms: _447  and  _448
REMARK  179  A    between atoms: _447  and  _450
REMARK  180  A    between atoms: _450  and  _451
REMARK  181  A    between atoms: _456  and  _457
REMARK  182  A    between atoms: _459  and  _461
REMARK  183  A    between atoms: _461  and  _462
REMARK  184  A    between atoms: _461  and  _464
REMARK  185  A    between atoms: _464  and  _465
REMARK  186  A    between atoms: _470  and  _471
REMARK  187  A    between atoms: _473  and  _475
REMARK  188  A    between atoms: _475  and  _476
REMARK  189  A    between atoms: _475  and  _478
REMARK  190  A    between atoms: _478  and  _479
REMARK  191  A    between atoms: _482  and  _484
REMARK  192  A    between atoms: _484  and  _485
REMARK  193  A    between atoms: _484  and  _487
REMARK  194  A    between atoms: _487  and  _488
REMARK  195  A    between atoms: _488  and  _489
REMARK  196  A    between atoms: _489  and  _490
REMARK  197  A    between atoms: _490  and  _491
REMARK  198  A    between atoms: _495  and  _497
REMARK  199  A    between atoms: _497  and  _498
REMARK  200  A    between atoms: _497  and  _500
REMARK  201  A    between atoms: _500  and  _501
REMARK  202  A    between atoms: _504  and  _506
REMARK  203  A    between atoms: _506  and  _507
REMARK  204  A    between atoms: _506  and  _509
REMARK  205  A    between atoms: _512  and  _514
REMARK  206  A    between atoms: _514  and  _515
REMARK  207  A    between atoms: _514  and  _517
REMARK  208  A    between atoms: _517  and  _518
REMARK  209  A    between atoms: _521  and  _523
REMARK  210  A    between atoms: _523  and  _524
REMARK  211  A    between atoms: _523  and  _526
REMARK  212  A    between atoms: _526  and  _527
REMARK  213  A    between atoms: _529  and  _531
REMARK  214  A    between atoms: _531  and  _532
REMARK  215  A    between atoms: _534  and  _536
REMARK  216  A    between atoms: _536  and  _537
REMARK  217  A    between atoms: _536  and  _539
REMARK  218  A    between atoms: _539  and  _540
REMARK  219  A    between atoms: _543  and  _545
REMARK  220  A    between atoms: _545  and  _546
REMARK  221  A    between atoms: _545  and  _548
REMARK  222  A    between atoms: _548  and  _549
REMARK  223  A    between atoms: _552  and  _554
REMARK  224  A    between atoms: _554  and  _555
REMARK  225  A    between atoms: _554  and  _557
REMARK  226  A    between atoms: _557  and  _558
REMARK  227  A    between atoms: _563  and  _565
REMARK  228  A    between atoms: _565  and  _566
REMARK  229  A    between atoms: _565  and  _568
REMARK  230  A    between atoms: _568  and  _569
REMARK  231  A    between atoms: _572  and  _574
REMARK  232  A    between atoms: _574  and  _575
REMARK  233  A    between atoms: _574  and  _577
REMARK  234  A    between atoms: _577  and  _578
REMARK  235  A    between atoms: _578  and  _579
REMARK  236  A    between atoms: _579  and  _580
REMARK  237  A    between atoms: _589  and  _591
REMARK  238  A    between atoms: _591  and  _592
REMARK  239  A    between atoms: _591  and  _594
REMARK  240  A    between atoms: _594  and  _595
REMARK  241  A    between atoms: _598  and  _600
REMARK  242  A    between atoms: _600  and  _601
REMARK  243  A    between atoms: _600  and  _603
REMARK  244  A    between atoms: _603  and  _604
REMARK  245  A    between atoms: _604  and  _605
REMARK  246  A    between atoms: _605  and  _606
REMARK  247  A    between atoms: _615  and  _617
REMARK  248  A    between atoms: _617  and  _618
REMARK  249  A    between atoms: _617  and  _620
REMARK  250  A    between atoms: _620  and  _621
REMARK  251  A    between atoms: _621  and  _622
REMARK  252  A    between atoms: _622  and  _623
REMARK  253  A    between atoms: _623  and  _624
REMARK  254  A    between atoms: _628  and  _630
REMARK  255  A    between atoms: _630  and  _631
REMARK  256  A    between atoms: _630  and  _633
REMARK  257  A    between atoms: _633  and  _634
REMARK  258  A    between atoms: _640  and  _642
REMARK  259  A    between atoms: _642  and  _643
REMARK  260  A    between atoms: _646  and  _648
REMARK  261  A    between atoms: _648  and  _649
REMARK  262  A    between atoms: _648  and  _651
REMARK  263  A    between atoms: _651  and  _652
REMARK  264  A    between atoms: _655  and  _657
REMARK  265  A    between atoms: _657  and  _658
REMARK  266  A    between atoms: _657  and  _660
REMARK  267  A    between atoms: _660  and  _661
REMARK  268  A    between atoms: _663  and  _665
REMARK  269  A    between atoms: _665  and  _666
REMARK  270  A    between atoms: _665  and  _668
REMARK  271  A    between atoms: _668  and  _669
REMARK  272  A    between atoms: _669  and  _670
REMARK  273  A    between atoms: _675  and  _677
REMARK  274  A    between atoms: _677  and  _678
REMARK  275  A    between atoms: _677  and  _680
REMARK  276  A    between atoms: _680  and  _681
REMARK  277  A    between atoms: _683  and  _685
REMARK  278  A    between atoms: _685  and  _686
REMARK  279  A    between atoms: _685  and  _688
REMARK  280  A    between atoms: _688  and  _689
REMARK  281  A    between atoms: _691  and  _693
REMARK  282  A    between atoms: _693  and  _694
REMARK  283  A    between atoms: _693  and  _696
REMARK  284  A    between atoms: _696  and  _697
REMARK  285  A    between atoms: _700  and  _702
REMARK  286  A    between atoms: _702  and  _703
REMARK  287  A    between atoms: _705  and  _707
REMARK  288  A    between atoms: _707  and  _708
REMARK  289  A    between atoms: _707  and  _710
REMARK  290  A    between atoms: _710  and  _711
REMARK  291  A    between atoms: _714  and  _716
REMARK  292  A    between atoms: _716  and  _717
REMARK  293  A    between atoms: _716  and  _719
REMARK  294  A    between atoms: _722  and  _724
REMARK  295  A    between atoms: _724  and  _725
REMARK  296  A    between atoms: _724  and  _727
REMARK  297  A    between atoms: _727  and  _728
REMARK  298  A    between atoms: _728  and  _729
REMARK  299  A    between atoms: _731  and  _733
REMARK  300  A    between atoms: _733  and  _734
REMARK  301  A    between atoms: _736  and  _738
REMARK  302  A    between atoms: _738  and  _739
REMARK  303  A    between atoms: _742  and  _744
REMARK  304  A    between atoms: _744  and  _745
REMARK  305  A    between atoms: _744  and  _747
REMARK  306  A    between atoms: _750  and  _752
REMARK  307  A    between atoms: _752  and  _753
REMARK  308  A    between atoms: _752  and  _755
REMARK  309  A    between atoms: _755  and  _756
REMARK  310  A    between atoms: _756  and  _757
REMARK                            x       y       z     vdW  Elec       q    Type
REMARK                         _______ _______ _______ _____ _____    ______ ____
ROOT
ATOM      1  O   HOH     1      11.301  13.899  26.747  0.00  0.00    +0.000 OA
ENDROOT
TORSDOF 0
REMARK  Name = ../refined-set-2016/3i25/3i25_pocket.pdb
REMARK  310 active torsions:
REMARK  status: ('A' for Active; 'I' for Inactive)
REMARK    1  A    between atoms: _1  and  _3
REMARK    2  A    between atoms: _3  and  _4
REMARK    3  A    between atoms: _3  and  _6
REMARK    4  A    between atoms: _6  and  _7
REMARK    5  A    between atoms: _7  and  _8
REMARK    6  A    between atoms: _8  and  _9
REMARK    7  A    between atoms: _9  and  _10
REMARK    8  A    between atoms: _14  and  _16
REMARK    9  A    between atoms: _16  and  _17
REMARK   10  A    between atoms: _16  and  _19
REMARK   11  A    between atoms: _19  and  _20
REMARK   12  A    between atoms: _22  and  _24
REMARK   13  A    between atoms: _24  and  _25
REMARK   14  A    between atoms: _27  and  _29
REMARK   15  A    between atoms: _29  and  _30
REMARK   16  A    between atoms: _29  and  _32
REMARK   17  A    between atoms: _32  and  _33
REMARK   18  A    between atoms: _33  and  _34
REMARK   19  A    between atoms: _39  and  _41
REMARK   20  A    between atoms: _41  and  _42
REMARK   21  A    between atoms: _44  and  _46
REMARK   22  A    between atoms: _46  and  _47
REMARK   23  A    between atoms: _46  and  _49
REMARK   24  A    between atoms: _49  and  _50
REMARK   25  A    between atoms: _55  and  _56
REMARK   26  A    between atoms: _58  and  _60
REMARK   27  A    between atoms: _60  and  _61
REMARK   28  A    between atoms: _60  and  _63
REMARK   29  A    between atoms: _63  and  _64
REMARK   30  A    between atoms: _67  and  _69
REMARK   31  A    between atoms: _69  and  _70
REMARK   32  A    between atoms: _69  and  _72
REMARK   33  A    between atoms: _75  and  _77
REMARK   34  A    between atoms: _77  and  _78
REMARK   35  A    between atoms: _77  and  _80
REMARK   36  A    between atoms: _80  and  _81
REMARK   37  A    between atoms: _84  and  _86
REMARK   38  A    between atoms: _86  and  _87
REMARK   39  A    between atoms: _86  and  _89
REMARK   40  A    between atoms: _89  and  _90
REMARK   41  A    between atoms: _93  and  _95
REMARK   42  A    between atoms: _95  and  _96
REMARK   43  A    between atoms: _98  and  _100
REMARK   44  A    between atoms: _100  and  _101
REMARK   45  A    between atoms: _100  and  _103
REMARK   46  A    between atoms: _103  and  _104
REMARK   47  A    between atoms: _106  and  _108
REMARK   48  A    between atoms: _108  and  _109
REMARK   49  A    between atoms: _108  and  _111
REMARK   50  A    between atoms: _111  and  _112
REMARK   51  A    between atoms: _114  and  _116
REMARK   52  A    between atoms: _116  and  _117
REMARK   53  A    between atoms: _116  and  _119
REMARK   54  A    between atoms: _119  and  _120
REMARK   55  A    between atoms: _125  and  _127
REMARK   56  A    between atoms: _127  and  _128
REMARK   57  A    between atoms: _127  and  _130
REMARK   58  A    between atoms: _130  and  _131
REMARK   59  A    between atoms: _136  and  _137
REMARK   60  A    between atoms: _139  and  _141
REMARK   61  A    between atoms: _141  and  _142
REMARK   62  A    between atoms: _141  and  _144
REMARK   63  A    between atoms: _148  and  _149
REMARK   64  A    between atoms: _154  and  _156
REMARK   65  A    between atoms: _156  and  _157
REMARK   66  A    between atoms: _156  and  _159
REMARK   67  A    between atoms: _159  and  _160
REMARK   68  A    between atoms: _165  and  _166
REMARK   69  A    between atoms: _168  and  _170
REMARK   70  A    between atoms: _170  and  _171
REMARK   71  A    between atoms: _170  and  _173
REMARK   72  A    between atoms: _173  and  _174
REMARK   73  A    between atoms: _177  and  _179
REMARK   74  A    between atoms: _179  and  _180
REMARK   75  A    between atoms: _179  and  _182
REMARK   76  A    between atoms: _182  and  _183
REMARK   77  A    between atoms: _183  and  _184
REMARK   78  A    between atoms: _189  and  _191
REMARK   79  A    between atoms: _191  and  _192
REMARK   80  A    between atoms: _194  and  _196
REMARK   81  A    between atoms: _196  and  _197
REMARK   82  A    between atoms: _196  and  _199
REMARK   83  A    between atoms: _199  and  _200
REMARK   84  A    between atoms: _200  and  _201
REMARK   85  A    between atoms: _201  and  _202
REMARK   86  A    between atoms: _202  and  _203
REMARK   87  A    between atoms: _207  and  _209
REMARK   88  A    between atoms: _209  and  _210
REMARK   89  A    between atoms: _209  and  _212
REMARK   90  A    between atoms: _212  and  _213
REMARK   91  A    between atoms: _223  and  _225
REMARK   92  A    between atoms: _225  and  _226
REMARK   93  A    between atoms: _225  and  _228
REMARK   94  A    between atoms: _228  and  _229
REMARK   95  A    between atoms: _232  and  _234
REMARK   96  A    between atoms: _234  and  _235
REMARK   97  A    between atoms: _234  and  _237
REMARK   98  A    between atoms: _237  and  _238
REMARK   99  A    between atoms: _238  and  _239
REMARK  100  A    between atoms: _239  and  _240
REMARK  101  A    between atoms: _240  and  _241
REMARK  102  A    between atoms: _245  and  _247
REMARK  103  A    between atoms: _247  and  _248
REMARK  104  A    between atoms: _247  and  _250
REMARK  105  A    between atoms: _250  and  _251
REMARK  106  A    between atoms: _257  and  _259
REMARK  107  A    between atoms: _259  and  _260
REMARK  108  A    between atoms: _259  and  _262
REMARK  109  A    between atoms: _262  and  _263
REMARK  110  A    between atoms: _269  and  _271
REMARK  111  A    between atoms: _271  and  _272
REMARK  112  A    between atoms: _271  and  _274
REMARK  113  A    between atoms: _274  and  _275
REMARK  114  A    between atoms: _278  and  _280
REMARK  115  A    between atoms: _280  and  _281
REMARK  116  A    between atoms: _280  and  _283
REMARK  117  A    between atoms: _283  and  _284
REMARK  118  A    between atoms: _289  and  _291
REMARK  119  A    between atoms: _291  and  _292
REMARK  120  A    between atoms: _291  and  _294
REMARK  121  A    between atoms: _294  and  _295
REMARK  122  A    between atoms: _297  and  _299
REMARK  123  A    between atoms: _299  and  _300
REMARK  124  A    between atoms: _299  and  _302
REMARK  125  A    between atoms: _302  and  _303
REMARK  126  A    between atoms: _313  and  _315
REMARK  127  A    between atoms: _315  and  _316
REMARK  128  A    between atoms: _318  and  _320
REMARK  129  A    between atoms: _320  and  _321
REMARK  130  A    between atoms: _320  and  _323
REMARK  131  A    between atoms: _323  and  _324
REMARK  132  A    between atoms: _327  and  _329
REMARK  133  A    between atoms: _329  and  _330
REMARK  134  A    between atoms: _329  and  _332
REMARK  135  A    between atoms: _332  and  _333
REMARK  136  A    between atoms: _336  and  _338
REMARK  137  A    between atoms: _338  and  _339
REMARK  138  A    between atoms: _341  and  _343
REMARK  139  A    between atoms: _343  and  _344
REMARK  140  A    between atoms: _343  and  _346
REMARK  141  A    between atoms: _346  and  _347
REMARK  142  A    between atoms: _350  and  _352
REMARK  143  A    between atoms: _352  and  _353
REMARK  144  A    between atoms: _356  and  _358
REMARK  145  A    between atoms: _358  and  _359
REMARK  146  A    between atoms: _358  and  _361
REMARK  147  A    between atoms: _361  and  _362
REMARK  148  A    between atoms: _367  and  _368
REMARK  149  A    between atoms: _370  and  _372
REMARK  150  A    between atoms: _372  and  _373
REMARK  151  A    between atoms: _372  and  _375
REMARK  152  A    between atoms: _375  and  _376
REMARK  153  A    between atoms: _376  and  _377
REMARK  154  A    between atoms: _380  and  _382
REMARK  155  A    between atoms: _382  and  _383
REMARK  156  A    between atoms: _382  and  _385
REMARK  157  A    between atoms: _385  and  _386
REMARK  158  A    between atoms: _389  and  _391
REMARK  159  A    between atoms: _391  and  _392
REMARK  160  A    between atoms: _395  and  _397
REMARK  161  A    between atoms: _397  and  _398
REMARK  162  A    between atoms: _397  and  _400
REMARK  163  A    between atoms: _400  and  _401
REMARK  164  A    between atoms: _401  and  _402
REMARK  165  A    between atoms: _402  and  _403
REMARK  166  A    between atoms: _412  and  _414
REMARK  167  A    between atoms: _414  and  _415
REMARK  168  A    between atoms: _414  and  _417
REMARK  169  A    between atoms: _417  and  _418
REMARK  170  A    between atoms: _421  and  _423
REMARK  171  A    between atoms: _423  and  _424
REMARK  172  A    between atoms: _423  and  _426
REMARK  173  A    between atoms: _429  and  _431
REMARK  174  A    between atoms: _431  and  _432
REMARK  175  A    between atoms: _431  and  _434
REMARK  176  A    between atoms: _434  and  _435
REMARK  177  A    between atoms: _445  and  _447
REMARK  178  A    between atoms: _447  and  _448
REMARK  179  A    between atoms: _447  and  _450
REMARK  180  A    between atoms: _450  and  _451
REMARK  181  A    between atoms: _456  and  _457
REMARK  182  A    between atoms: _459  and  _461
REMARK  183  A    between atoms: _461  and  _462
REMARK  184  A    between atoms: _461  and  _464
REMARK  185  A    between atoms: _464  and  _465
REMARK  186  A    between atoms: _470  and  _471
REMARK  187  A    between atoms: _473  and  _475
REMARK  188  A    between atoms: _475  and  _476
REMARK  189  A    between atoms: _475  and  _478
REMARK  190  A    between atoms: _478  and  _479
REMARK  191  A    between atoms: _482  and  _484
REMARK  192  A    between atoms: _484  and  _485
REMARK  193  A    between atoms: _484  and  _487
REMARK  194  A    between atoms: _487  and  _488
REMARK  195  A    between atoms: _488  and  _489
REMARK  196  A    between atoms: _489  and  _490
REMARK  197  A    between atoms: _490  and  _491
REMARK  198  A    between atoms: _495  and  _497
REMARK  199  A    between atoms: _497  and  _498
REMARK  200  A    between atoms: _497  and  _500
REMARK  201  A    between atoms: _500  and  _501
REMARK  202  A    between atoms: _504  and  _506
REMARK  203  A    between atoms: _506  and  _507
REMARK  204  A    between atoms: _506  and  _509
REMARK  205  A    between atoms: _512  and  _514
REMARK  206  A    between atoms: _514  and  _515
REMARK  207  A    between atoms: _514  and  _517
REMARK  208  A    between atoms: _517  and  _518
REMARK  209  A    between atoms: _521  and  _523
REMARK  210  A    between atoms: _523  and  _524
REMARK  211  A    between atoms: _523  and  _526
REMARK  212  A    between atoms: _526  and  _527
REMARK  213  A    between atoms: _529  and  _531
REMARK  214  A    between atoms: _531  and  _532
REMARK  215  A    between atoms: _534  and  _536
REMARK  216  A    between atoms: _536  and  _537
REMARK  217  A    between atoms: _536  and  _539
REMARK  218  A    between atoms: _539  and  _540
REMARK  219  A    between atoms: _543  and  _545
REMARK  220  A    between atoms: _545  and  _546
REMARK  221  A    between atoms: _545  and  _548
REMARK  222  A    between atoms: _548  and  _549
REMARK  223  A    between atoms: _552  and  _554
REMARK  224  A    between atoms: _554  and  _555
REMARK  225  A    between atoms: _554  and  _557
REMARK  226  A    between atoms: _557  and  _558
REMARK  227  A    between atoms: _563  and  _565
REMARK  228  A    between atoms: _565  and  _566
REMARK  229  A    between atoms: _565  and  _568
REMARK  230  A    between atoms: _568  and  _569
REMARK  231  A    between atoms: _572  and  _574
REMARK  232  A    between atoms: _574  and  _575
REMARK  233  A    between atoms: _574  and  _577
REMARK  234  A    between atoms: _577  and  _578
REMARK  235  A    between atoms: _578  and  _579
REMARK  236  A    between atoms: _579  and  _580
REMARK  237  A    between atoms: _589  and  _591
REMARK  238  A    between atoms: _591  and  _592
REMARK  239  A    between atoms: _591  and  _594
REMARK  240  A    between atoms: _594  and  _595
REMARK  241  A    between atoms: _598  and  _600
REMARK  242  A    between atoms: _600  and  _601
REMARK  243  A    between atoms: _600  and  _603
REMARK  244  A    between atoms: _603  and  _604
REMARK  245  A    between atoms: _604  and  _605
REMARK  246  A    between atoms: _605  and  _606
REMARK  247  A    between atoms: _615  and  _617
REMARK  248  A    between atoms: _617  and  _618
REMARK  249  A    between atoms: _617  and  _620
REMARK  250  A    between atoms: _620  and  _621
REMARK  251  A    between atoms: _621  and  _622
REMARK  252  A    between atoms: _622  and  _623
REMARK  253  A    between atoms: _623  and  _624
REMARK  254  A    between atoms: _628  and  _630
REMARK  255  A    between atoms: _630  and  _631
REMARK  256  A    between atoms: _630  and  _633
REMARK  257  A    between atoms: _633  and  _634
REMARK  258  A    between atoms: _640  and  _642
REMARK  259  A    between atoms: _642  and  _643
REMARK  260  A    between atoms: _646  and  _648
REMARK  261  A    between atoms: _648  and  _649
REMARK  262  A    between atoms: _648  and  _651
REMARK  263  A    between atoms: _651  and  _652
REMARK  264  A    between atoms: _655  and  _657
REMARK  265  A    between atoms: _657  and  _658
REMARK  266  A    between atoms: _657  and  _660
REMARK  267  A    between atoms: _660  and  _661
REMARK  268  A    between atoms: _663  and  _665
REMARK  269  A    between atoms: _665  and  _666
REMARK  270  A    between atoms: _665  and  _668
REMARK  271  A    between atoms: _668  and  _669
REMARK  272  A    between atoms: _669  and  _670
REMARK  273  A    between atoms: _675  and  _677
REMARK  274  A    between atoms: _677  and  _678
REMARK  275  A    between atoms: _677  and  _680
REMARK  276  A    between atoms: _680  and  _681
REMARK  277  A    between atoms: _683  and  _685
REMARK  278  A    between atoms: _685  and  _686
REMARK  279  A    between atoms: _685  and  _688
REMARK  280  A    between atoms: _688  and  _689
REMARK  281  A    between atoms: _691  and  _693
REMARK  282  A    between atoms: _693  and  _694
REMARK  283  A    between atoms: _693  and  _696
REMARK  284  A    between atoms: _696  and  _697
REMARK  285  A    between atoms: _700  and  _702
REMARK  286  A    between atoms: _702  and  _703
REMARK  287  A    between atoms: _705  and  _707
REMARK  288  A    between atoms: _707  and  _708
REMARK  289  A    between atoms: _707  and  _710
REMARK  290  A    between atoms: _710  and  _711
REMARK  291  A    between atoms: _714  and  _716
REMARK  292  A    between atoms: _716  and  _717
REMARK  293  A    between atoms: _716  and  _719
REMARK  294  A    between atoms: _722  and  _724
REMARK  295  A    between atoms: _724  and  _725
REMARK  296  A    between atoms: _724  and  _727
REMARK  297  A    between atoms: _727  and  _728
REMARK  298  A    between atoms: _728  and  _729
REMARK  299  A    between atoms: _731  and  _733
REMARK  300  A    between atoms: _733  and  _734
REMARK  301  A    between atoms: _736  and  _738
REMARK  302  A    between atoms: _738  and  _739
REMARK  303  A    between atoms: _742  and  _744
REMARK  304  A    between atoms: _744  and  _745
REMARK  305  A    between atoms: _744  and  _747
REMARK  306  A    between atoms: _750  and  _752
REMARK  307  A    between atoms: _752  and  _753
REMARK  308  A    between atoms: _752  and  _755
REMARK  309  A    between atoms: _755  and  _756
REMARK  310  A    between atoms: _756  and  _757
REMARK                            x       y       z     vdW  Elec       q    Type
REMARK                         _______ _______ _______ _____ _____    ______ ____
ROOT
ATOM      1  O   HOH     1       6.487  16.684  25.175  0.00  0.00    +0.000 OA
ENDROOT
TORSDOF 0
REMARK  Name = ../refined-set-2016/3i25/3i25_pocket.pdb
REMARK  310 active torsions:
REMARK  status: ('A' for Active; 'I' for Inactive)
REMARK    1  A    between atoms: _1  and  _3
REMARK    2  A    between atoms: _3  and  _4
REMARK    3  A    between atoms: _3  and  _6
REMARK    4  A    between atoms: _6  and  _7
REMARK    5  A    between atoms: _7  and  _8
REMARK    6  A    between atoms: _8  and  _9
REMARK    7  A    between atoms: _9  and  _10
REMARK    8  A    between atoms: _14  and  _16
REMARK    9  A    between atoms: _16  and  _17
REMARK   10  A    between atoms: _16  and  _19
REMARK   11  A    between atoms: _19  and  _20
REMARK   12  A    between atoms: _22  and  _24
REMARK   13  A    between atoms: _24  and  _25
REMARK   14  A    between atoms: _27  and  _29
REMARK   15  A    between atoms: _29  and  _30
REMARK   16  A    between atoms: _29  and  _32
REMARK   17  A    between atoms: _32  and  _33
REMARK   18  A    between atoms: _33  and  _34
REMARK   19  A    between atoms: _39  and  _41
REMARK   20  A    between atoms: _41  and  _42
REMARK   21  A    between atoms: _44  and  _46
REMARK   22  A    between atoms: _46  and  _47
REMARK   23  A    between atoms: _46  and  _49
REMARK   24  A    between atoms: _49  and  _50
REMARK   25  A    between atoms: _55  and  _56
REMARK   26  A    between atoms: _58  and  _60
REMARK   27  A    between atoms: _60  and  _61
REMARK   28  A    between atoms: _60  and  _63
REMARK   29  A    between atoms: _63  and  _64
REMARK   30  A    between atoms: _67  and  _69
REMARK   31  A    between atoms: _69  and  _70
REMARK   32  A    between atoms: _69  and  _72
REMARK   33  A    between atoms: _75  and  _77
REMARK   34  A    between atoms: _77  and  _78
REMARK   35  A    between atoms: _77  and  _80
REMARK   36  A    between atoms: _80  and  _81
REMARK   37  A    between atoms: _84  and  _86
REMARK   38  A    between atoms: _86  and  _87
REMARK   39  A    between atoms: _86  and  _89
REMARK   40  A    between atoms: _89  and  _90
REMARK   41  A    between atoms: _93  and  _95
REMARK   42  A    between atoms: _95  and  _96
REMARK   43  A    between atoms: _98  and  _100
REMARK   44  A    between atoms: _100  and  _101
REMARK   45  A    between atoms: _100  and  _103
REMARK   46  A    between atoms: _103  and  _104
REMARK   47  A    between atoms: _106  and  _108
REMARK   48  A    between atoms: _108  and  _109
REMARK   49  A    between atoms: _108  and  _111
REMARK   50  A    between atoms: _111  and  _112
REMARK   51  A    between atoms: _114  and  _116
REMARK   52  A    between atoms: _116  and  _117
REMARK   53  A    between atoms: _116  and  _119
REMARK   54  A    between atoms: _119  and  _120
REMARK   55  A    between atoms: _125  and  _127
REMARK   56  A    between atoms: _127  and  _128
REMARK   57  A    between atoms: _127  and  _130
REMARK   58  A    between atoms: _130  and  _131
REMARK   59  A    between atoms: _136  and  _137
REMARK   60  A    between atoms: _139  and  _141
REMARK   61  A    between atoms: _141  and  _142
REMARK   62  A    between atoms: _141  and  _144
REMARK   63  A    between atoms: _148  and  _149
REMARK   64  A    between atoms: _154  and  _156
REMARK   65  A    between atoms: _156  and  _157
REMARK   66  A    between atoms: _156  and  _159
REMARK   67  A    between atoms: _159  and  _160
REMARK   68  A    between atoms: _165  and  _166
REMARK   69  A    between atoms: _168  and  _170
REMARK   70  A    between atoms: _170  and  _171
REMARK   71  A    between atoms: _170  and  _173
REMARK   72  A    between atoms: _173  and  _174
REMARK   73  A    between atoms: _177  and  _179
REMARK   74  A    between atoms: _179  and  _180
REMARK   75  A    between atoms: _179  and  _182
REMARK   76  A    between atoms: _182  and  _183
REMARK   77  A    between atoms: _183  and  _184
REMARK   78  A    between atoms: _189  and  _191
REMARK   79  A    between atoms: _191  and  _192
REMARK   80  A    between atoms: _194  and  _196
REMARK   81  A    between atoms: _196  and  _197
REMARK   82  A    between atoms: _196  and  _199
REMARK   83  A    between atoms: _199  and  _200
REMARK   84  A    between atoms: _200  and  _201
REMARK   85  A    between atoms: _201  and  _202
REMARK   86  A    between atoms: _202  and  _203
REMARK   87  A    between atoms: _207  and  _209
REMARK   88  A    between atoms: _209  and  _210
REMARK   89  A    between atoms: _209  and  _212
REMARK   90  A    between atoms: _212  and  _213
REMARK   91  A    between atoms: _223  and  _225
REMARK   92  A    between atoms: _225  and  _226
REMARK   93  A    between atoms: _225  and  _228
REMARK   94  A    between atoms: _228  and  _229
REMARK   95  A    between atoms: _232  and  _234
REMARK   96  A    between atoms: _234  and  _235
REMARK   97  A    between atoms: _234  and  _237
REMARK   98  A    between atoms: _237  and  _238
REMARK   99  A    between atoms: _238  and  _239
REMARK  100  A    between atoms: _239  and  _240
REMARK  101  A    between atoms: _240  and  _241
REMARK  102  A    between atoms: _245  and  _247
REMARK  103  A    between atoms: _247  and  _248
REMARK  104  A    between atoms: _247  and  _250
REMARK  105  A    between atoms: _250  and  _251
REMARK  106  A    between atoms: _257  and  _259
REMARK  107  A    between atoms: _259  and  _260
REMARK  108  A    between atoms: _259  and  _262
REMARK  109  A    between atoms: _262  and  _263
REMARK  110  A    between atoms: _269  and  _271
REMARK  111  A    between atoms: _271  and  _272
REMARK  112  A    between atoms: _271  and  _274
REMARK  113  A    between atoms: _274  and  _275
REMARK  114  A    between atoms: _278  and  _280
REMARK  115  A    between atoms: _280  and  _281
REMARK  116  A    between atoms: _280  and  _283
REMARK  117  A    between atoms: _283  and  _284
REMARK  118  A    between atoms: _289  and  _291
REMARK  119  A    between atoms: _291  and  _292
REMARK  120  A    between atoms: _291  and  _294
REMARK  121  A    between atoms: _294  and  _295
REMARK  122  A    between atoms: _297  and  _299
REMARK  123  A    between atoms: _299  and  _300
REMARK  124  A    between atoms: _299  and  _302
REMARK  125  A    between atoms: _302  and  _303
REMARK  126  A    between atoms: _313  and  _315
REMARK  127  A    between atoms: _315  and  _316
REMARK  128  A    between atoms: _318  and  _320
REMARK  129  A    between atoms: _320  and  _321
REMARK  130  A    between atoms: _320  and  _323
REMARK  131  A    between atoms: _323  and  _324
REMARK  132  A    between atoms: _327  and  _329
REMARK  133  A    between atoms: _329  and  _330
REMARK  134  A    between atoms: _329  and  _332
REMARK  135  A    between atoms: _332  and  _333
REMARK  136  A    between atoms: _336  and  _338
REMARK  137  A    between atoms: _338  and  _339
REMARK  138  A    between atoms: _341  and  _343
REMARK  139  A    between atoms: _343  and  _344
REMARK  140  A    between atoms: _343  and  _346
REMARK  141  A    between atoms: _346  and  _347
REMARK  142  A    between atoms: _350  and  _352
REMARK  143  A    between atoms: _352  and  _353
REMARK  144  A    between atoms: _356  and  _358
REMARK  145  A    between atoms: _358  and  _359
REMARK  146  A    between atoms: _358  and  _361
REMARK  147  A    between atoms: _361  and  _362
REMARK  148  A    between atoms: _367  and  _368
REMARK  149  A    between atoms: _370  and  _372
REMARK  150  A    between atoms: _372  and  _373
REMARK  151  A    between atoms: _372  and  _375
REMARK  152  A    between atoms: _375  and  _376
REMARK  153  A    between atoms: _376  and  _377
REMARK  154  A    between atoms: _380  and  _382
REMARK  155  A    between atoms: _382  and  _383
REMARK  156  A    between atoms: _382  and  _385
REMARK  157  A    between atoms: _385  and  _386
REMARK  158  A    between atoms: _389  and  _391
REMARK  159  A    between atoms: _391  and  _392
REMARK  160  A    between atoms: _395  and  _397
REMARK  161  A    between atoms: _397  and  _398
REMARK  162  A    between atoms: _397  and  _400
REMARK  163  A    between atoms: _400  and  _401
REMARK  164  A    between atoms: _401  and  _402
REMARK  165  A    between atoms: _402  and  _403
REMARK  166  A    between atoms: _412  and  _414
REMARK  167  A    between atoms: _414  and  _415
REMARK  168  A    between atoms: _414  and  _417
REMARK  169  A    between atoms: _417  and  _418
REMARK  170  A    between atoms: _421  and  _423
REMARK  171  A    between atoms: _423  and  _424
REMARK  172  A    between atoms: _423  and  _426
REMARK  173  A    between atoms: _429  and  _431
REMARK  174  A    between atoms: _431  and  _432
REMARK  175  A    between atoms: _431  and  _434
REMARK  176  A    between atoms: _434  and  _435
REMARK  177  A    between atoms: _445  and  _447
REMARK  178  A    between atoms: _447  and  _448
REMARK  179  A    between atoms: _447  and  _450
REMARK  180  A    between atoms: _450  and  _451
REMARK  181  A    between atoms: _456  and  _457
REMARK  182  A    between atoms: _459  and  _461
REMARK  183  A    between atoms: _461  and  _462
REMARK  184  A    between atoms: _461  and  _464
REMARK  185  A    between atoms: _464  and  _465
REMARK  186  A    between atoms: _470  and  _471
REMARK  187  A    between atoms: _473  and  _475
REMARK  188  A    between atoms: _475  and  _476
REMARK  189  A    between atoms: _475  and  _478
REMARK  190  A    between atoms: _478  and  _479
REMARK  191  A    between atoms: _482  and  _484
REMARK  192  A    between atoms: _484  and  _485
REMARK  193  A    between atoms: _484  and  _487
REMARK  194  A    between atoms: _487  and  _488
REMARK  195  A    between atoms: _488  and  _489
REMARK  196  A    between atoms: _489  and  _490
REMARK  197  A    between atoms: _490  and  _491
REMARK  198  A    between atoms: _495  and  _497
REMARK  199  A    between atoms: _497  and  _498
REMARK  200  A    between atoms: _497  and  _500
REMARK  201  A    between atoms: _500  and  _501
REMARK  202  A    between atoms: _504  and  _506
REMARK  203  A    between atoms: _506  and  _507
REMARK  204  A    between atoms: _506  and  _509
REMARK  205  A    between atoms: _512  and  _514
REMARK  206  A    between atoms: _514  and  _515
REMARK  207  A    between atoms: _514  and  _517
REMARK  208  A    between atoms: _517  and  _518
REMARK  209  A    between atoms: _521  and  _523
REMARK  210  A    between atoms: _523  and  _524
REMARK  211  A    between atoms: _523  and  _526
REMARK  212  A    between atoms: _526  and  _527
REMARK  213  A    between atoms: _529  and  _531
REMARK  214  A    between atoms: _531  and  _532
REMARK  215  A    between atoms: _534  and  _536
REMARK  216  A    between atoms: _536  and  _537
REMARK  217  A    between atoms: _536  and  _539
REMARK  218  A    between atoms: _539  and  _540
REMARK  219  A    between atoms: _543  and  _545
REMARK  220  A    between atoms: _545  and  _546
REMARK  221  A    between atoms: _545  and  _548
REMARK  222  A    between atoms: _548  and  _549
REMARK  223  A    between atoms: _552  and  _554
REMARK  224  A    between atoms: _554  and  _555
REMARK  225  A    between atoms: _554  and  _557
REMARK  226  A    between atoms: _557  and  _558
REMARK  227  A    between atoms: _563  and  _565
REMARK  228  A    between atoms: _565  and  _566
REMARK  229  A    between atoms: _565  and  _568
REMARK  230  A    between atoms: _568  and  _569
REMARK  231  A    between atoms: _572  and  _574
REMARK  232  A    between atoms: _574  and  _575
REMARK  233  A    between atoms: _574  and  _577
REMARK  234  A    between atoms: _577  and  _578
REMARK  235  A    between atoms: _578  and  _579
REMARK  236  A    between atoms: _579  and  _580
REMARK  237  A    between atoms: _589  and  _591
REMARK  238  A    between atoms: _591  and  _592
REMARK  239  A    between atoms: _591  and  _594
REMARK  240  A    between atoms: _594  and  _595
REMARK  241  A    between atoms: _598  and  _600
REMARK  242  A    between atoms: _600  and  _601
REMARK  243  A    between atoms: _600  and  _603
REMARK  244  A    between atoms: _603  and  _604
REMARK  245  A    between atoms: _604  and  _605
REMARK  246  A    between atoms: _605  and  _606
REMARK  247  A    between atoms: _615  and  _617
REMARK  248  A    between atoms: _617  and  _618
REMARK  249  A    between atoms: _617  and  _620
REMARK  250  A    between atoms: _620  and  _621
REMARK  251  A    between atoms: _621  and  _622
REMARK  252  A    between atoms: _622  and  _623
REMARK  253  A    between atoms: _623  and  _624
REMARK  254  A    between atoms: _628  and  _630
REMARK  255  A    between atoms: _630  and  _631
REMARK  256  A    between atoms: _630  and  _633
REMARK  257  A    between atoms: _633  and  _634
REMARK  258  A    between atoms: _640  and  _642
REMARK  259  A    between atoms: _642  and  _643
REMARK  260  A    between atoms: _646  and  _648
REMARK  261  A    between atoms: _648  and  _649
REMARK  262  A    between atoms: _648  and  _651
REMARK  263  A    between atoms: _651  and  _652
REMARK  264  A    between atoms: _655  and  _657
REMARK  265  A    between atoms: _657  and  _658
REMARK  266  A    between atoms: _657  and  _660
REMARK  267  A    between atoms: _660  and  _661
REMARK  268  A    between atoms: _663  and  _665
REMARK  269  A    between atoms: _665  and  _666
REMARK  270  A    between atoms: _665  and  _668
REMARK  271  A    between atoms: _668  and  _669
REMARK  272  A    between atoms: _669  and  _670
REMARK  273  A    between atoms: _675  and  _677
REMARK  274  A    between atoms: _677  and  _678
REMARK  275  A    between atoms: _677  and  _680
REMARK  276  A    between atoms: _680  and  _681
REMARK  277  A    between atoms: _683  and  _685
REMARK  278  A    between atoms: _685  and  _686
REMARK  279  A    between atoms: _685  and  _688
REMARK  280  A    between atoms: _688  and  _689
REMARK  281  A    between atoms: _691  and  _693
REMARK  282  A    between atoms: _693  and  _694
REMARK  283  A    between atoms: _693  and  _696
REMARK  284  A    between atoms: _696  and  _697
REMARK  285  A    between atoms: _700  and  _702
REMARK  286  A    between atoms: _702  and  _703
REMARK  287  A    between atoms: _705  and  _707
REMARK  288  A    between atoms: _707  and  _708
REMARK  289  A    between atoms: _707  and  _710
REMARK  290  A    between atoms: _710  and  _711
REMARK  291  A    between atoms: _714  and  _716
REMARK  292  A    between atoms: _716  and  _717
REMARK  293  A    between atoms: _716  and  _719
REMARK  294  A    between atoms: _722  and  _724
REMARK  295  A    between atoms: _724  and  _725
REMARK  296  A    between atoms: _724  and  _727
REMARK  297  A    between atoms: _727  and  _728
REMARK  298  A    between atoms: _728  and  _729
REMARK  299  A    between atoms: _731  and  _733
REMARK  300  A    between atoms: _733  and  _734
REMARK  301  A    between atoms: _736  and  _738
REMARK  302  A    between atoms: _738  and  _739
REMARK  303  A    between atoms: _742  and  _744
REMARK  304  A    between atoms: _744  and  _745
REMARK  305  A    between atoms: _744  and  _747
REMARK  306  A    between atoms: _750  and  _752
REMARK  307  A    between atoms: _752  and  _753
REMARK  308  A    between atoms: _752  and  _755
REMARK  309  A    between atoms: _755  and  _756
REMARK  310  A    between atoms: _756  and  _757
REMARK                            x       y       z     vdW  Elec       q    Type
REMARK                         _______ _______ _______ _____ _____    ______ ____
ROOT
ATOM      1  O   HOH     1       8.022  13.330  32.417  0.00  0.00    +0.000 OA
ENDROOT
TORSDOF 0
REMARK  Name = ../refined-set-2016/3i25/3i25_pocket.pdb
REMARK  310 active torsions:
REMARK  status: ('A' for Active; 'I' for Inactive)
REMARK    1  A    between atoms: _1  and  _3
REMARK    2  A    between atoms: _3  and  _4
REMARK    3  A    between atoms: _3  and  _6
REMARK    4  A    between atoms: _6  and  _7
REMARK    5  A    between atoms: _7  and  _8
REMARK    6  A    between atoms: _8  and  _9
REMARK    7  A    between atoms: _9  and  _10
REMARK    8  A    between atoms: _14  and  _16
REMARK    9  A    between atoms: _16  and  _17
REMARK   10  A    between atoms: _16  and  _19
REMARK   11  A    between atoms: _19  and  _20
REMARK   12  A    between atoms: _22  and  _24
REMARK   13  A    between atoms: _24  and  _25
REMARK   14  A    between atoms: _27  and  _29
REMARK   15  A    between atoms: _29  and  _30
REMARK   16  A    between atoms: _29  and  _32
REMARK   17  A    between atoms: _32  and  _33
REMARK   18  A    between atoms: _33  and  _34
REMARK   19  A    between atoms: _39  and  _41
REMARK   20  A    between atoms: _41  and  _42
REMARK   21  A    between atoms: _44  and  _46
REMARK   22  A    between atoms: _46  and  _47
REMARK   23  A    between atoms: _46  and  _49
REMARK   24  A    between atoms: _49  and  _50
REMARK   25  A    between atoms: _55  and  _56
REMARK   26  A    between atoms: _58  and  _60
REMARK   27  A    between atoms: _60  and  _61
REMARK   28  A    between atoms: _60  and  _63
REMARK   29  A    between atoms: _63  and  _64
REMARK   30  A    between atoms: _67  and  _69
REMARK   31  A    between atoms: _69  and  _70
REMARK   32  A    between atoms: _69  and  _72
REMARK   33  A    between atoms: _75  and  _77
REMARK   34  A    between atoms: _77  and  _78
REMARK   35  A    between atoms: _77  and  _80
REMARK   36  A    between atoms: _80  and  _81
REMARK   37  A    between atoms: _84  and  _86
REMARK   38  A    between atoms: _86  and  _87
REMARK   39  A    between atoms: _86  and  _89
REMARK   40  A    between atoms: _89  and  _90
REMARK   41  A    between atoms: _93  and  _95
REMARK   42  A    between atoms: _95  and  _96
REMARK   43  A    between atoms: _98  and  _100
REMARK   44  A    between atoms: _100  and  _101
REMARK   45  A    between atoms: _100  and  _103
REMARK   46  A    between atoms: _103  and  _104
REMARK   47  A    between atoms: _106  and  _108
REMARK   48  A    between atoms: _108  and  _109
REMARK   49  A    between atoms: _108  and  _111
REMARK   50  A    between atoms: _111  and  _112
REMARK   51  A    between atoms: _114  and  _116
REMARK   52  A    between atoms: _116  and  _117
REMARK   53  A    between atoms: _116  and  _119
REMARK   54  A    between atoms: _119  and  _120
REMARK   55  A    between atoms: _125  and  _127
REMARK   56  A    between atoms: _127  and  _128
REMARK   57  A    between atoms: _127  and  _130
REMARK   58  A    between atoms: _130  and  _131
REMARK   59  A    between atoms: _136  and  _137
REMARK   60  A    between atoms: _139  and  _141
REMARK   61  A    between atoms: _141  and  _142
REMARK   62  A    between atoms: _141  and  _144
REMARK   63  A    between atoms: _148  and  _149
REMARK   64  A    between atoms: _154  and  _156
REMARK   65  A    between atoms: _156  and  _157
REMARK   66  A    between atoms: _156  and  _159
REMARK   67  A    between atoms: _159  and  _160
REMARK   68  A    between atoms: _165  and  _166
REMARK   69  A    between atoms: _168  and  _170
REMARK   70  A    between atoms: _170  and  _171
REMARK   71  A    between atoms: _170  and  _173
REMARK   72  A    between atoms: _173  and  _174
REMARK   73  A    between atoms: _177  and  _179
REMARK   74  A    between atoms: _179  and  _180
REMARK   75  A    between atoms: _179  and  _182
REMARK   76  A    between atoms: _182  and  _183
REMARK   77  A    between atoms: _183  and  _184
REMARK   78  A    between atoms: _189  and  _191
REMARK   79  A    between atoms: _191  and  _192
REMARK   80  A    between atoms: _194  and  _196
REMARK   81  A    between atoms: _196  and  _197
REMARK   82  A    between atoms: _196  and  _199
REMARK   83  A    between atoms: _199  and  _200
REMARK   84  A    between atoms: _200  and  _201
REMARK   85  A    between atoms: _201  and  _202
REMARK   86  A    between atoms: _202  and  _203
REMARK   87  A    between atoms: _207  and  _209
REMARK   88  A    between atoms: _209  and  _210
REMARK   89  A    between atoms: _209  and  _212
REMARK   90  A    between atoms: _212  and  _213
REMARK   91  A    between atoms: _223  and  _225
REMARK   92  A    between atoms: _225  and  _226
REMARK   93  A    between atoms: _225  and  _228
REMARK   94  A    between atoms: _228  and  _229
REMARK   95  A    between atoms: _232  and  _234
REMARK   96  A    between atoms: _234  and  _235
REMARK   97  A    between atoms: _234  and  _237
REMARK   98  A    between atoms: _237  and  _238
REMARK   99  A    between atoms: _238  and  _239
REMARK  100  A    between atoms: _239  and  _240
REMARK  101  A    between atoms: _240  and  _241
REMARK  102  A    between atoms: _245  and  _247
REMARK  103  A    between atoms: _247  and  _248
REMARK  104  A    between atoms: _247  and  _250
REMARK  105  A    between atoms: _250  and  _251
REMARK  106  A    between atoms: _257  and  _259
REMARK  107  A    between atoms: _259  and  _260
REMARK  108  A    between atoms: _259  and  _262
REMARK  109  A    between atoms: _262  and  _263
REMARK  110  A    between atoms: _269  and  _271
REMARK  111  A    between atoms: _271  and  _272
REMARK  112  A    between atoms: _271  and  _274
REMARK  113  A    between atoms: _274  and  _275
REMARK  114  A    between atoms: _278  and  _280
REMARK  115  A    between atoms: _280  and  _281
REMARK  116  A    between atoms: _280  and  _283
REMARK  117  A    between atoms: _283  and  _284
REMARK  118  A    between atoms: _289  and  _291
REMARK  119  A    between atoms: _291  and  _292
REMARK  120  A    between atoms: _291  and  _294
REMARK  121  A    between atoms: _294  and  _295
REMARK  122  A    between atoms: _297  and  _299
REMARK  123  A    between atoms: _299  and  _300
REMARK  124  A    between atoms: _299  and  _302
REMARK  125  A    between atoms: _302  and  _303
REMARK  126  A    between atoms: _313  and  _315
REMARK  127  A    between atoms: _315  and  _316
REMARK  128  A    between atoms: _318  and  _320
REMARK  129  A    between atoms: _320  and  _321
REMARK  130  A    between atoms: _320  and  _323
REMARK  131  A    between atoms: _323  and  _324
REMARK  132  A    between atoms: _327  and  _329
REMARK  133  A    between atoms: _329  and  _330
REMARK  134  A    between atoms: _329  and  _332
REMARK  135  A    between atoms: _332  and  _333
REMARK  136  A    between atoms: _336  and  _338
REMARK  137  A    between atoms: _338  and  _339
REMARK  138  A    between atoms: _341  and  _343
REMARK  139  A    between atoms: _343  and  _344
REMARK  140  A    between atoms: _343  and  _346
REMARK  141  A    between atoms: _346  and  _347
REMARK  142  A    between atoms: _350  and  _352
REMARK  143  A    between atoms: _352  and  _353
REMARK  144  A    between atoms: _356  and  _358
REMARK  145  A    between atoms: _358  and  _359
REMARK  146  A    between atoms: _358  and  _361
REMARK  147  A    between atoms: _361  and  _362
REMARK  148  A    between atoms: _367  and  _368
REMARK  149  A    between atoms: _370  and  _372
REMARK  150  A    between atoms: _372  and  _373
REMARK  151  A    between atoms: _372  and  _375
REMARK  152  A    between atoms: _375  and  _376
REMARK  153  A    between atoms: _376  and  _377
REMARK  154  A    between atoms: _380  and  _382
REMARK  155  A    between atoms: _382  and  _383
REMARK  156  A    between atoms: _382  and  _385
REMARK  157  A    between atoms: _385  and  _386
REMARK  158  A    between atoms: _389  and  _391
REMARK  159  A    between atoms: _391  and  _392
REMARK  160  A    between atoms: _395  and  _397
REMARK  161  A    between atoms: _397  and  _398
REMARK  162  A    between atoms: _397  and  _400
REMARK  163  A    between atoms: _400  and  _401
REMARK  164  A    between atoms: _401  and  _402
REMARK  165  A    between atoms: _402  and  _403
REMARK  166  A    between atoms: _412  and  _414
REMARK  167  A    between atoms: _414  and  _415
REMARK  168  A    between atoms: _414  and  _417
REMARK  169  A    between atoms: _417  and  _418
REMARK  170  A    between atoms: _421  and  _423
REMARK  171  A    between atoms: _423  and  _424
REMARK  172  A    between atoms: _423  and  _426
REMARK  173  A    between atoms: _429  and  _431
REMARK  174  A    between atoms: _431  and  _432
REMARK  175  A    between atoms: _431  and  _434
REMARK  176  A    between atoms: _434  and  _435
REMARK  177  A    between atoms: _445  and  _447
REMARK  178  A    between atoms: _447  and  _448
REMARK  179  A    between atoms: _447  and  _450
REMARK  180  A    between atoms: _450  and  _451
REMARK  181  A    between atoms: _456  and  _457
REMARK  182  A    between atoms: _459  and  _461
REMARK  183  A    between atoms: _461  and  _462
REMARK  184  A    between atoms: _461  and  _464
REMARK  185  A    between atoms: _464  and  _465
REMARK  186  A    between atoms: _470  and  _471
REMARK  187  A    between atoms: _473  and  _475
REMARK  188  A    between atoms: _475  and  _476
REMARK  189  A    between atoms: _475  and  _478
REMARK  190  A    between atoms: _478  and  _479
REMARK  191  A    between atoms: _482  and  _484
REMARK  192  A    between atoms: _484  and  _485
REMARK  193  A    between atoms: _484  and  _487
REMARK  194  A    between atoms: _487  and  _488
REMARK  195  A    between atoms: _488  and  _489
REMARK  196  A    between atoms: _489  and  _490
REMARK  197  A    between atoms: _490  and  _491
REMARK  198  A    between atoms: _495  and  _497
REMARK  199  A    between atoms: _497  and  _498
REMARK  200  A    between atoms: _497  and  _500
REMARK  201  A    between atoms: _500  and  _501
REMARK  202  A    between atoms: _504  and  _506
REMARK  203  A    between atoms: _506  and  _507
REMARK  204  A    between atoms: _506  and  _509
REMARK  205  A    between atoms: _512  and  _514
REMARK  206  A    between atoms: _514  and  _515
REMARK  207  A    between atoms: _514  and  _517
REMARK  208  A    between atoms: _517  and  _518
REMARK  209  A    between atoms: _521  and  _523
REMARK  210  A    between atoms: _523  and  _524
REMARK  211  A    between atoms: _523  and  _526
REMARK  212  A    between atoms: _526  and  _527
REMARK  213  A    between atoms: _529  and  _531
REMARK  214  A    between atoms: _531  and  _532
REMARK  215  A    between atoms: _534  and  _536
REMARK  216  A    between atoms: _536  and  _537
REMARK  217  A    between atoms: _536  and  _539
REMARK  218  A    between atoms: _539  and  _540
REMARK  219  A    between atoms: _543  and  _545
REMARK  220  A    between atoms: _545  and  _546
REMARK  221  A    between atoms: _545  and  _548
REMARK  222  A    between atoms: _548  and  _549
REMARK  223  A    between atoms: _552  and  _554
REMARK  224  A    between atoms: _554  and  _555
REMARK  225  A    between atoms: _554  and  _557
REMARK  226  A    between atoms: _557  and  _558
REMARK  227  A    between atoms: _563  and  _565
REMARK  228  A    between atoms: _565  and  _566
REMARK  229  A    between atoms: _565  and  _568
REMARK  230  A    between atoms: _568  and  _569
REMARK  231  A    between atoms: _572  and  _574
REMARK  232  A    between atoms: _574  and  _575
REMARK  233  A    between atoms: _574  and  _577
REMARK  234  A    between atoms: _577  and  _578
REMARK  235  A    between atoms: _578  and  _579
REMARK  236  A    between atoms: _579  and  _580
REMARK  237  A    between atoms: _589  and  _591
REMARK  238  A    between atoms: _591  and  _592
REMARK  239  A    between atoms: _591  and  _594
REMARK  240  A    between atoms: _594  and  _595
REMARK  241  A    between atoms: _598  and  _600
REMARK  242  A    between atoms: _600  and  _601
REMARK  243  A    between atoms: _600  and  _603
REMARK  244  A    between atoms: _603  and  _604
REMARK  245  A    between atoms: _604  and  _605
REMARK  246  A    between atoms: _605  and  _606
REMARK  247  A    between atoms: _615  and  _617
REMARK  248  A    between atoms: _617  and  _618
REMARK  249  A    between atoms: _617  and  _620
REMARK  250  A    between atoms: _620  and  _621
REMARK  251  A    between atoms: _621  and  _622
REMARK  252  A    between atoms: _622  and  _623
REMARK  253  A    between atoms: _623  and  _624
REMARK  254  A    between atoms: _628  and  _630
REMARK  255  A    between atoms: _630  and  _631
REMARK  256  A    between atoms: _630  and  _633
REMARK  257  A    between atoms: _633  and  _634
REMARK  258  A    between atoms: _640  and  _642
REMARK  259  A    between atoms: _642  and  _643
REMARK  260  A    between atoms: _646  and  _648
REMARK  261  A    between atoms: _648  and  _649
REMARK  262  A    between atoms: _648  and  _651
REMARK  263  A    between atoms: _651  and  _652
REMARK  264  A    between atoms: _655  and  _657
REMARK  265  A    between atoms: _657  and  _658
REMARK  266  A    between atoms: _657  and  _660
REMARK  267  A    between atoms: _660  and  _661
REMARK  268  A    between atoms: _663  and  _665
REMARK  269  A    between atoms: _665  and  _666
REMARK  270  A    between atoms: _665  and  _668
REMARK  271  A    between atoms: _668  and  _669
REMARK  272  A    between atoms: _669  and  _670
REMARK  273  A    between atoms: _675  and  _677
REMARK  274  A    between atoms: _677  and  _678
REMARK  275  A    between atoms: _677  and  _680
REMARK  276  A    between atoms: _680  and  _681
REMARK  277  A    between atoms: _683  and  _685
REMARK  278  A    between atoms: _685  and  _686
REMARK  279  A    between atoms: _685  and  _688
REMARK  280  A    between atoms: _688  and  _689
REMARK  281  A    between atoms: _691  and  _693
REMARK  282  A    between atoms: _693  and  _694
REMARK  283  A    between atoms: _693  and  _696
REMARK  284  A    between atoms: _696  and  _697
REMARK  285  A    between atoms: _700  and  _702
REMARK  286  A    between atoms: _702  and  _703
REMARK  287  A    between atoms: _705  and  _707
REMARK  288  A    between atoms: _707  and  _708
REMARK  289  A    between atoms: _707  and  _710
REMARK  290  A    between atoms: _710  and  _711
REMARK  291  A    between atoms: _714  and  _716
REMARK  292  A    between atoms: _716  and  _717
REMARK  293  A    between atoms: _716  and  _719
REMARK  294  A    between atoms: _722  and  _724
REMARK  295  A    between atoms: _724  and  _725
REMARK  296  A    between atoms: _724  and  _727
REMARK  297  A    between atoms: _727  and  _728
REMARK  298  A    between atoms: _728  and  _729
REMARK  299  A    between atoms: _731  and  _733
REMARK  300  A    between atoms: _733  and  _734
REMARK  301  A    between atoms: _736  and  _738
REMARK  302  A    between atoms: _738  and  _739
REMARK  303  A    between atoms: _742  and  _744
REMARK  304  A    between atoms: _744  and  _745
REMARK  305  A    between atoms: _744  and  _747
REMARK  306  A    between atoms: _750  and  _752
REMARK  307  A    between atoms: _752  and  _753
REMARK  308  A    between atoms: _752  and  _755
REMARK  309  A    between atoms: _755  and  _756
REMARK  310  A    between atoms: _756  and  _757
REMARK                            x       y       z     vdW  Elec       q    Type
REMARK                         _______ _______ _______ _____ _____    ______ ____
ROOT
ATOM      1  O   HOH     1      13.090  12.090  30.714  0.00  0.00    +0.000 OA
ENDROOT
TORSDOF 0
REMARK  Name = ../refined-set-2016/3i25/3i25_pocket.pdb
REMARK  310 active torsions:
REMARK  status: ('A' for Active; 'I' for Inactive)
REMARK    1  A    between atoms: _1  and  _3
REMARK    2  A    between atoms: _3  and  _4
REMARK    3  A    between atoms: _3  and  _6
REMARK    4  A    between atoms: _6  and  _7
REMARK    5  A    between atoms: _7  and  _8
REMARK    6  A    between atoms: _8  and  _9
REMARK    7  A    between atoms: _9  and  _10
REMARK    8  A    between atoms: _14  and  _16
REMARK    9  A    between atoms: _16  and  _17
REMARK   10  A    between atoms: _16  and  _19
REMARK   11  A    between atoms: _19  and  _20
REMARK   12  A    between atoms: _22  and  _24
REMARK   13  A    between atoms: _24  and  _25
REMARK   14  A    between atoms: _27  and  _29
REMARK   15  A    between atoms: _29  and  _30
REMARK   16  A    between atoms: _29  and  _32
REMARK   17  A    between atoms: _32  and  _33
REMARK   18  A    between atoms: _33  and  _34
REMARK   19  A    between atoms: _39  and  _41
REMARK   20  A    between atoms: _41  and  _42
REMARK   21  A    between atoms: _44  and  _46
REMARK   22  A    between atoms: _46  and  _47
REMARK   23  A    between atoms: _46  and  _49
REMARK   24  A    between atoms: _49  and  _50
REMARK   25  A    between atoms: _55  and  _56
REMARK   26  A    between atoms: _58  and  _60
REMARK   27  A    between atoms: _60  and  _61
REMARK   28  A    between atoms: _60  and  _63
REMARK   29  A    between atoms: _63  and  _64
REMARK   30  A    between atoms: _67  and  _69
REMARK   31  A    between atoms: _69  and  _70
REMARK   32  A    between atoms: _69  and  _72
REMARK   33  A    between atoms: _75  and  _77
REMARK   34  A    between atoms: _77  and  _78
REMARK   35  A    between atoms: _77  and  _80
REMARK   36  A    between atoms: _80  and  _81
REMARK   37  A    between atoms: _84  and  _86
REMARK   38  A    between atoms: _86  and  _87
REMARK   39  A    between atoms: _86  and  _89
REMARK   40  A    between atoms: _89  and  _90
REMARK   41  A    between atoms: _93  and  _95
REMARK   42  A    between atoms: _95  and  _96
REMARK   43  A    between atoms: _98  and  _100
REMARK   44  A    between atoms: _100  and  _101
REMARK   45  A    between atoms: _100  and  _103
REMARK   46  A    between atoms: _103  and  _104
REMARK   47  A    between atoms: _106  and  _108
REMARK   48  A    between atoms: _108  and  _109
REMARK   49  A    between atoms: _108  and  _111
REMARK   50  A    between atoms: _111  and  _112
REMARK   51  A    between atoms: _114  and  _116
REMARK   52  A    between atoms: _116  and  _117
REMARK   53  A    between atoms: _116  and  _119
REMARK   54  A    between atoms: _119  and  _120
REMARK   55  A    between atoms: _125  and  _127
REMARK   56  A    between atoms: _127  and  _128
REMARK   57  A    between atoms: _127  and  _130
REMARK   58  A    between atoms: _130  and  _131
REMARK   59  A    between atoms: _136  and  _137
REMARK   60  A    between atoms: _139  and  _141
REMARK   61  A    between atoms: _141  and  _142
REMARK   62  A    between atoms: _141  and  _144
REMARK   63  A    between atoms: _148  and  _149
REMARK   64  A    between atoms: _154  and  _156
REMARK   65  A    between atoms: _156  and  _157
REMARK   66  A    between atoms: _156  and  _159
REMARK   67  A    between atoms: _159  and  _160
REMARK   68  A    between atoms: _165  and  _166
REMARK   69  A    between atoms: _168  and  _170
REMARK   70  A    between atoms: _170  and  _171
REMARK   71  A    between atoms: _170  and  _173
REMARK   72  A    between atoms: _173  and  _174
REMARK   73  A    between atoms: _177  and  _179
REMARK   74  A    between atoms: _179  and  _180
REMARK   75  A    between atoms: _179  and  _182
REMARK   76  A    between atoms: _182  and  _183
REMARK   77  A    between atoms: _183  and  _184
REMARK   78  A    between atoms: _189  and  _191
REMARK   79  A    between atoms: _191  and  _192
REMARK   80  A    between atoms: _194  and  _196
REMARK   81  A    between atoms: _196  and  _197
REMARK   82  A    between atoms: _196  and  _199
REMARK   83  A    between atoms: _199  and  _200
REMARK   84  A    between atoms: _200  and  _201
REMARK   85  A    between atoms: _201  and  _202
REMARK   86  A    between atoms: _202  and  _203
REMARK   87  A    between atoms: _207  and  _209
REMARK   88  A    between atoms: _209  and  _210
REMARK   89  A    between atoms: _209  and  _212
REMARK   90  A    between atoms: _212  and  _213
REMARK   91  A    between atoms: _223  and  _225
REMARK   92  A    between atoms: _225  and  _226
REMARK   93  A    between atoms: _225  and  _228
REMARK   94  A    between atoms: _228  and  _229
REMARK   95  A    between atoms: _232  and  _234
REMARK   96  A    between atoms: _234  and  _235
REMARK   97  A    between atoms: _234  and  _237
REMARK   98  A    between atoms: _237  and  _238
REMARK   99  A    between atoms: _238  and  _239
REMARK  100  A    between atoms: _239  and  _240
REMARK  101  A    between atoms: _240  and  _241
REMARK  102  A    between atoms: _245  and  _247
REMARK  103  A    between atoms: _247  and  _248
REMARK  104  A    between atoms: _247  and  _250
REMARK  105  A    between atoms: _250  and  _251
REMARK  106  A    between atoms: _257  and  _259
REMARK  107  A    between atoms: _259  and  _260
REMARK  108  A    between atoms: _259  and  _262
REMARK  109  A    between atoms: _262  and  _263
REMARK  110  A    between atoms: _269  and  _271
REMARK  111  A    between atoms: _271  and  _272
REMARK  112  A    between atoms: _271  and  _274
REMARK  113  A    between atoms: _274  and  _275
REMARK  114  A    between atoms: _278  and  _280
REMARK  115  A    between atoms: _280  and  _281
REMARK  116  A    between atoms: _280  and  _283
REMARK  117  A    between atoms: _283  and  _284
REMARK  118  A    between atoms: _289  and  _291
REMARK  119  A    between atoms: _291  and  _292
REMARK  120  A    between atoms: _291  and  _294
REMARK  121  A    between atoms: _294  and  _295
REMARK  122  A    between atoms: _297  and  _299
REMARK  123  A    between atoms: _299  and  _300
REMARK  124  A    between atoms: _299  and  _302
REMARK  125  A    between atoms: _302  and  _303
REMARK  126  A    between atoms: _313  and  _315
REMARK  127  A    between atoms: _315  and  _316
REMARK  128  A    between atoms: _318  and  _320
REMARK  129  A    between atoms: _320  and  _321
REMARK  130  A    between atoms: _320  and  _323
REMARK  131  A    between atoms: _323  and  _324
REMARK  132  A    between atoms: _327  and  _329
REMARK  133  A    between atoms: _329  and  _330
REMARK  134  A    between atoms: _329  and  _332
REMARK  135  A    between atoms: _332  and  _333
REMARK  136  A    between atoms: _336  and  _338
REMARK  137  A    between atoms: _338  and  _339
REMARK  138  A    between atoms: _341  and  _343
REMARK  139  A    between atoms: _343  and  _344
REMARK  140  A    between atoms: _343  and  _346
REMARK  141  A    between atoms: _346  and  _347
REMARK  142  A    between atoms: _350  and  _352
REMARK  143  A    between atoms: _352  and  _353
REMARK  144  A    between atoms: _356  and  _358
REMARK  145  A    between atoms: _358  and  _359
REMARK  146  A    between atoms: _358  and  _361
REMARK  147  A    between atoms: _361  and  _362
REMARK  148  A    between atoms: _367  and  _368
REMARK  149  A    between atoms: _370  and  _372
REMARK  150  A    between atoms: _372  and  _373
REMARK  151  A    between atoms: _372  and  _375
REMARK  152  A    between atoms: _375  and  _376
REMARK  153  A    between atoms: _376  and  _377
REMARK  154  A    between atoms: _380  and  _382
REMARK  155  A    between atoms: _382  and  _383
REMARK  156  A    between atoms: _382  and  _385
REMARK  157  A    between atoms: _385  and  _386
REMARK  158  A    between atoms: _389  and  _391
REMARK  159  A    between atoms: _391  and  _392
REMARK  160  A    between atoms: _395  and  _397
REMARK  161  A    between atoms: _397  and  _398
REMARK  162  A    between atoms: _397  and  _400
REMARK  163  A    between atoms: _400  and  _401
REMARK  164  A    between atoms: _401  and  _402
REMARK  165  A    between atoms: _402  and  _403
REMARK  166  A    between atoms: _412  and  _414
REMARK  167  A    between atoms: _414  and  _415
REMARK  168  A    between atoms: _414  and  _417
REMARK  169  A    between atoms: _417  and  _418
REMARK  170  A    between atoms: _421  and  _423
REMARK  171  A    between atoms: _423  and  _424
REMARK  172  A    between atoms: _423  and  _426
REMARK  173  A    between atoms: _429  and  _431
REMARK  174  A    between atoms: _431  and  _432
REMARK  175  A    between atoms: _431  and  _434
REMARK  176  A    between atoms: _434  and  _435
REMARK  177  A    between atoms: _445  and  _447
REMARK  178  A    between atoms: _447  and  _448
REMARK  179  A    between atoms: _447  and  _450
REMARK  180  A    between atoms: _450  and  _451
REMARK  181  A    between atoms: _456  and  _457
REMARK  182  A    between atoms: _459  and  _461
REMARK  183  A    between atoms: _461  and  _462
REMARK  184  A    between atoms: _461  and  _464
REMARK  185  A    between atoms: _464  and  _465
REMARK  186  A    between atoms: _470  and  _471
REMARK  187  A    between atoms: _473  and  _475
REMARK  188  A    between atoms: _475  and  _476
REMARK  189  A    between atoms: _475  and  _478
REMARK  190  A    between atoms: _478  and  _479
REMARK  191  A    between atoms: _482  and  _484
REMARK  192  A    between atoms: _484  and  _485
REMARK  193  A    between atoms: _484  and  _487
REMARK  194  A    between atoms: _487  and  _488
REMARK  195  A    between atoms: _488  and  _489
REMARK  196  A    between atoms: _489  and  _490
REMARK  197  A    between atoms: _490  and  _491
REMARK  198  A    between atoms: _495  and  _497
REMARK  199  A    between atoms: _497  and  _498
REMARK  200  A    between atoms: _497  and  _500
REMARK  201  A    between atoms: _500  and  _501
REMARK  202  A    between atoms: _504  and  _506
REMARK  203  A    between atoms: _506  and  _507
REMARK  204  A    between atoms: _506  and  _509
REMARK  205  A    between atoms: _512  and  _514
REMARK  206  A    between atoms: _514  and  _515
REMARK  207  A    between atoms: _514  and  _517
REMARK  208  A    between atoms: _517  and  _518
REMARK  209  A    between atoms: _521  and  _523
REMARK  210  A    between atoms: _523  and  _524
REMARK  211  A    between atoms: _523  and  _526
REMARK  212  A    between atoms: _526  and  _527
REMARK  213  A    between atoms: _529  and  _531
REMARK  214  A    between atoms: _531  and  _532
REMARK  215  A    between atoms: _534  and  _536
REMARK  216  A    between atoms: _536  and  _537
REMARK  217  A    between atoms: _536  and  _539
REMARK  218  A    between atoms: _539  and  _540
REMARK  219  A    between atoms: _543  and  _545
REMARK  220  A    between atoms: _545  and  _546
REMARK  221  A    between atoms: _545  and  _548
REMARK  222  A    between atoms: _548  and  _549
REMARK  223  A    between atoms: _552  and  _554
REMARK  224  A    between atoms: _554  and  _555
REMARK  225  A    between atoms: _554  and  _557
REMARK  226  A    between atoms: _557  and  _558
REMARK  227  A    between atoms: _563  and  _565
REMARK  228  A    between atoms: _565  and  _566
REMARK  229  A    between atoms: _565  and  _568
REMARK  230  A    between atoms: _568  and  _569
REMARK  231  A    between atoms: _572  and  _574
REMARK  232  A    between atoms: _574  and  _575
REMARK  233  A    between atoms: _574  and  _577
REMARK  234  A    between atoms: _577  and  _578
REMARK  235  A    between atoms: _578  and  _579
REMARK  236  A    between atoms: _579  and  _580
REMARK  237  A    between atoms: _589  and  _591
REMARK  238  A    between atoms: _591  and  _592
REMARK  239  A    between atoms: _591  and  _594
REMARK  240  A    between atoms: _594  and  _595
REMARK  241  A    between atoms: _598  and  _600
REMARK  242  A    between atoms: _600  and  _601
REMARK  243  A    between atoms: _600  and  _603
REMARK  244  A    between atoms: _603  and  _604
REMARK  245  A    between atoms: _604  and  _605
REMARK  246  A    between atoms: _605  and  _606
REMARK  247  A    between atoms: _615  and  _617
REMARK  248  A    between atoms: _617  and  _618
REMARK  249  A    between atoms: _617  and  _620
REMARK  250  A    between atoms: _620  and  _621
REMARK  251  A    between atoms: _621  and  _622
REMARK  252  A    between atoms: _622  and  _623
REMARK  253  A    between atoms: _623  and  _624
REMARK  254  A    between atoms: _628  and  _630
REMARK  255  A    between atoms: _630  and  _631
REMARK  256  A    between atoms: _630  and  _633
REMARK  257  A    between atoms: _633  and  _634
REMARK  258  A    between atoms: _640  and  _642
REMARK  259  A    between atoms: _642  and  _643
REMARK  260  A    between atoms: _646  and  _648
REMARK  261  A    between atoms: _648  and  _649
REMARK  262  A    between atoms: _648  and  _651
REMARK  263  A    between atoms: _651  and  _652
REMARK  264  A    between atoms: _655  and  _657
REMARK  265  A    between atoms: _657  and  _658
REMARK  266  A    between atoms: _657  and  _660
REMARK  267  A    between atoms: _660  and  _661
REMARK  268  A    between atoms: _663  and  _665
REMARK  269  A    between atoms: _665  and  _666
REMARK  270  A    between atoms: _665  and  _668
REMARK  271  A    between atoms: _668  and  _669
REMARK  272  A    between atoms: _669  and  _670
REMARK  273  A    between atoms: _675  and  _677
REMARK  274  A    between atoms: _677  and  _678
REMARK  275  A    between atoms: _677  and  _680
REMARK  276  A    between atoms: _680  and  _681
REMARK  277  A    between atoms: _683  and  _685
REMARK  278  A    between atoms: _685  and  _686
REMARK  279  A    between atoms: _685  and  _688
REMARK  280  A    between atoms: _688  and  _689
REMARK  281  A    between atoms: _691  and  _693
REMARK  282  A    between atoms: _693  and  _694
REMARK  283  A    between atoms: _693  and  _696
REMARK  284  A    between atoms: _696  and  _697
REMARK  285  A    between atoms: _700  and  _702
REMARK  286  A    between atoms: _702  and  _703
REMARK  287  A    between atoms: _705  and  _707
REMARK  288  A    between atoms: _707  and  _708
REMARK  289  A    between atoms: _707  and  _710
REMARK  290  A    between atoms: _710  and  _711
REMARK  291  A    between atoms: _714  and  _716
REMARK  292  A    between atoms: _716  and  _717
REMARK  293  A    between atoms: _716  and  _719
REMARK  294  A    between atoms: _722  and  _724
REMARK  295  A    between atoms: _724  and  _725
REMARK  296  A    between atoms: _724  and  _727
REMARK  297  A    between atoms: _727  and  _728
REMARK  298  A    between atoms: _728  and  _729
REMARK  299  A    between atoms: _731  and  _733
REMARK  300  A    between atoms: _733  and  _734
REMARK  301  A    between atoms: _736  and  _738
REMARK  302  A    between atoms: _738  and  _739
REMARK  303  A    between atoms: _742  and  _744
REMARK  304  A    between atoms: _744  and  _745
REMARK  305  A    between atoms: _744  and  _747
REMARK  306  A    between atoms: _750  and  _752
REMARK  307  A    between atoms: _752  and  _753
REMARK  308  A    between atoms: _752  and  _755
REMARK  309  A    between atoms: _755  and  _756
REMARK  310  A    between atoms: _756  and  _757
REMARK                            x       y       z     vdW  Elec       q    Type
REMARK                         _______ _______ _______ _____ _____    ______ ____
ROOT
ATOM      1  O   HOH     1      -6.108  14.653  44.020  0.00  0.00    +0.000 OA
ENDROOT
TORSDOF 0
REMARK  Name = ../refined-set-2016/3i25/3i25_pocket.pdb
REMARK  310 active torsions:
REMARK  status: ('A' for Active; 'I' for Inactive)
REMARK    1  A    between atoms: _1  and  _3
REMARK    2  A    between atoms: _3  and  _4
REMARK    3  A    between atoms: _3  and  _6
REMARK    4  A    between atoms: _6  and  _7
REMARK    5  A    between atoms: _7  and  _8
REMARK    6  A    between atoms: _8  and  _9
REMARK    7  A    between atoms: _9  and  _10
REMARK    8  A    between atoms: _14  and  _16
REMARK    9  A    between atoms: _16  and  _17
REMARK   10  A    between atoms: _16  and  _19
REMARK   11  A    between atoms: _19  and  _20
REMARK   12  A    between atoms: _22  and  _24
REMARK   13  A    between atoms: _24  and  _25
REMARK   14  A    between atoms: _27  and  _29
REMARK   15  A    between atoms: _29  and  _30
REMARK   16  A    between atoms: _29  and  _32
REMARK   17  A    between atoms: _32  and  _33
REMARK   18  A    between atoms: _33  and  _34
REMARK   19  A    between atoms: _39  and  _41
REMARK   20  A    between atoms: _41  and  _42
REMARK   21  A    between atoms: _44  and  _46
REMARK   22  A    between atoms: _46  and  _47
REMARK   23  A    between atoms: _46  and  _49
REMARK   24  A    between atoms: _49  and  _50
REMARK   25  A    between atoms: _55  and  _56
REMARK   26  A    between atoms: _58  and  _60
REMARK   27  A    between atoms: _60  and  _61
REMARK   28  A    between atoms: _60  and  _63
REMARK   29  A    between atoms: _63  and  _64
REMARK   30  A    between atoms: _67  and  _69
REMARK   31  A    between atoms: _69  and  _70
REMARK   32  A    between atoms: _69  and  _72
REMARK   33  A    between atoms: _75  and  _77
REMARK   34  A    between atoms: _77  and  _78
REMARK   35  A    between atoms: _77  and  _80
REMARK   36  A    between atoms: _80  and  _81
REMARK   37  A    between atoms: _84  and  _86
REMARK   38  A    between atoms: _86  and  _87
REMARK   39  A    between atoms: _86  and  _89
REMARK   40  A    between atoms: _89  and  _90
REMARK   41  A    between atoms: _93  and  _95
REMARK   42  A    between atoms: _95  and  _96
REMARK   43  A    between atoms: _98  and  _100
REMARK   44  A    between atoms: _100  and  _101
REMARK   45  A    between atoms: _100  and  _103
REMARK   46  A    between atoms: _103  and  _104
REMARK   47  A    between atoms: _106  and  _108
REMARK   48  A    between atoms: _108  and  _109
REMARK   49  A    between atoms: _108  and  _111
REMARK   50  A    between atoms: _111  and  _112
REMARK   51  A    between atoms: _114  and  _116
REMARK   52  A    between atoms: _116  and  _117
REMARK   53  A    between atoms: _116  and  _119
REMARK   54  A    between atoms: _119  and  _120
REMARK   55  A    between atoms: _125  and  _127
REMARK   56  A    between atoms: _127  and  _128
REMARK   57  A    between atoms: _127  and  _130
REMARK   58  A    between atoms: _130  and  _131
REMARK   59  A    between atoms: _136  and  _137
REMARK   60  A    between atoms: _139  and  _141
REMARK   61  A    between atoms: _141  and  _142
REMARK   62  A    between atoms: _141  and  _144
REMARK   63  A    between atoms: _148  and  _149
REMARK   64  A    between atoms: _154  and  _156
REMARK   65  A    between atoms: _156  and  _157
REMARK   66  A    between atoms: _156  and  _159
REMARK   67  A    between atoms: _159  and  _160
REMARK   68  A    between atoms: _165  and  _166
REMARK   69  A    between atoms: _168  and  _170
REMARK   70  A    between atoms: _170  and  _171
REMARK   71  A    between atoms: _170  and  _173
REMARK   72  A    between atoms: _173  and  _174
REMARK   73  A    between atoms: _177  and  _179
REMARK   74  A    between atoms: _179  and  _180
REMARK   75  A    between atoms: _179  and  _182
REMARK   76  A    between atoms: _182  and  _183
REMARK   77  A    between atoms: _183  and  _184
REMARK   78  A    between atoms: _189  and  _191
REMARK   79  A    between atoms: _191  and  _192
REMARK   80  A    between atoms: _194  and  _196
REMARK   81  A    between atoms: _196  and  _197
REMARK   82  A    between atoms: _196  and  _199
REMARK   83  A    between atoms: _199  and  _200
REMARK   84  A    between atoms: _200  and  _201
REMARK   85  A    between atoms: _201  and  _202
REMARK   86  A    between atoms: _202  and  _203
REMARK   87  A    between atoms: _207  and  _209
REMARK   88  A    between atoms: _209  and  _210
REMARK   89  A    between atoms: _209  and  _212
REMARK   90  A    between atoms: _212  and  _213
REMARK   91  A    between atoms: _223  and  _225
REMARK   92  A    between atoms: _225  and  _226
REMARK   93  A    between atoms: _225  and  _228
REMARK   94  A    between atoms: _228  and  _229
REMARK   95  A    between atoms: _232  and  _234
REMARK   96  A    between atoms: _234  and  _235
REMARK   97  A    between atoms: _234  and  _237
REMARK   98  A    between atoms: _237  and  _238
REMARK   99  A    between atoms: _238  and  _239
REMARK  100  A    between atoms: _239  and  _240
REMARK  101  A    between atoms: _240  and  _241
REMARK  102  A    between atoms: _245  and  _247
REMARK  103  A    between atoms: _247  and  _248
REMARK  104  A    between atoms: _247  and  _250
REMARK  105  A    between atoms: _250  and  _251
REMARK  106  A    between atoms: _257  and  _259
REMARK  107  A    between atoms: _259  and  _260
REMARK  108  A    between atoms: _259  and  _262
REMARK  109  A    between atoms: _262  and  _263
REMARK  110  A    between atoms: _269  and  _271
REMARK  111  A    between atoms: _271  and  _272
REMARK  112  A    between atoms: _271  and  _274
REMARK  113  A    between atoms: _274  and  _275
REMARK  114  A    between atoms: _278  and  _280
REMARK  115  A    between atoms: _280  and  _281
REMARK  116  A    between atoms: _280  and  _283
REMARK  117  A    between atoms: _283  and  _284
REMARK  118  A    between atoms: _289  and  _291
REMARK  119  A    between atoms: _291  and  _292
REMARK  120  A    between atoms: _291  and  _294
REMARK  121  A    between atoms: _294  and  _295
REMARK  122  A    between atoms: _297  and  _299
REMARK  123  A    between atoms: _299  and  _300
REMARK  124  A    between atoms: _299  and  _302
REMARK  125  A    between atoms: _302  and  _303
REMARK  126  A    between atoms: _313  and  _315
REMARK  127  A    between atoms: _315  and  _316
REMARK  128  A    between atoms: _318  and  _320
REMARK  129  A    between atoms: _320  and  _321
REMARK  130  A    between atoms: _320  and  _323
REMARK  131  A    between atoms: _323  and  _324
REMARK  132  A    between atoms: _327  and  _329
REMARK  133  A    between atoms: _329  and  _330
REMARK  134  A    between atoms: _329  and  _332
REMARK  135  A    between atoms: _332  and  _333
REMARK  136  A    between atoms: _336  and  _338
REMARK  137  A    between atoms: _338  and  _339
REMARK  138  A    between atoms: _341  and  _343
REMARK  139  A    between atoms: _343  and  _344
REMARK  140  A    between atoms: _343  and  _346
REMARK  141  A    between atoms: _346  and  _347
REMARK  142  A    between atoms: _350  and  _352
REMARK  143  A    between atoms: _352  and  _353
REMARK  144  A    between atoms: _356  and  _358
REMARK  145  A    between atoms: _358  and  _359
REMARK  146  A    between atoms: _358  and  _361
REMARK  147  A    between atoms: _361  and  _362
REMARK  148  A    between atoms: _367  and  _368
REMARK  149  A    between atoms: _370  and  _372
REMARK  150  A    between atoms: _372  and  _373
REMARK  151  A    between atoms: _372  and  _375
REMARK  152  A    between atoms: _375  and  _376
REMARK  153  A    between atoms: _376  and  _377
REMARK  154  A    between atoms: _380  and  _382
REMARK  155  A    between atoms: _382  and  _383
REMARK  156  A    between atoms: _382  and  _385
REMARK  157  A    between atoms: _385  and  _386
REMARK  158  A    between atoms: _389  and  _391
REMARK  159  A    between atoms: _391  and  _392
REMARK  160  A    between atoms: _395  and  _397
REMARK  161  A    between atoms: _397  and  _398
REMARK  162  A    between atoms: _397  and  _400
REMARK  163  A    between atoms: _400  and  _401
REMARK  164  A    between atoms: _401  and  _402
REMARK  165  A    between atoms: _402  and  _403
REMARK  166  A    between atoms: _412  and  _414
REMARK  167  A    between atoms: _414  and  _415
REMARK  168  A    between atoms: _414  and  _417
REMARK  169  A    between atoms: _417  and  _418
REMARK  170  A    between atoms: _421  and  _423
REMARK  171  A    between atoms: _423  and  _424
REMARK  172  A    between atoms: _423  and  _426
REMARK  173  A    between atoms: _429  and  _431
REMARK  174  A    between atoms: _431  and  _432
REMARK  175  A    between atoms: _431  and  _434
REMARK  176  A    between atoms: _434  and  _435
REMARK  177  A    between atoms: _445  and  _447
REMARK  178  A    between atoms: _447  and  _448
REMARK  179  A    between atoms: _447  and  _450
REMARK  180  A    between atoms: _450  and  _451
REMARK  181  A    between atoms: _456  and  _457
REMARK  182  A    between atoms: _459  and  _461
REMARK  183  A    between atoms: _461  and  _462
REMARK  184  A    between atoms: _461  and  _464
REMARK  185  A    between atoms: _464  and  _465
REMARK  186  A    between atoms: _470  and  _471
REMARK  187  A    between atoms: _473  and  _475
REMARK  188  A    between atoms: _475  and  _476
REMARK  189  A    between atoms: _475  and  _478
REMARK  190  A    between atoms: _478  and  _479
REMARK  191  A    between atoms: _482  and  _484
REMARK  192  A    between atoms: _484  and  _485
REMARK  193  A    between atoms: _484  and  _487
REMARK  194  A    between atoms: _487  and  _488
REMARK  195  A    between atoms: _488  and  _489
REMARK  196  A    between atoms: _489  and  _490
REMARK  197  A    between atoms: _490  and  _491
REMARK  198  A    between atoms: _495  and  _497
REMARK  199  A    between atoms: _497  and  _498
REMARK  200  A    between atoms: _497  and  _500
REMARK  201  A    between atoms: _500  and  _501
REMARK  202  A    between atoms: _504  and  _506
REMARK  203  A    between atoms: _506  and  _507
REMARK  204  A    between atoms: _506  and  _509
REMARK  205  A    between atoms: _512  and  _514
REMARK  206  A    between atoms: _514  and  _515
REMARK  207  A    between atoms: _514  and  _517
REMARK  208  A    between atoms: _517  and  _518
REMARK  209  A    between atoms: _521  and  _523
REMARK  210  A    between atoms: _523  and  _524
REMARK  211  A    between atoms: _523  and  _526
REMARK  212  A    between atoms: _526  and  _527
REMARK  213  A    between atoms: _529  and  _531
REMARK  214  A    between atoms: _531  and  _532
REMARK  215  A    between atoms: _534  and  _536
REMARK  216  A    between atoms: _536  and  _537
REMARK  217  A    between atoms: _536  and  _539
REMARK  218  A    between atoms: _539  and  _540
REMARK  219  A    between atoms: _543  and  _545
REMARK  220  A    between atoms: _545  and  _546
REMARK  221  A    between atoms: _545  and  _548
REMARK  222  A    between atoms: _548  and  _549
REMARK  223  A    between atoms: _552  and  _554
REMARK  224  A    between atoms: _554  and  _555
REMARK  225  A    between atoms: _554  and  _557
REMARK  226  A    between atoms: _557  and  _558
REMARK  227  A    between atoms: _563  and  _565
REMARK  228  A    between atoms: _565  and  _566
REMARK  229  A    between atoms: _565  and  _568
REMARK  230  A    between atoms: _568  and  _569
REMARK  231  A    between atoms: _572  and  _574
REMARK  232  A    between atoms: _574  and  _575
REMARK  233  A    between atoms: _574  and  _577
REMARK  234  A    between atoms: _577  and  _578
REMARK  235  A    between atoms: _578  and  _579
REMARK  236  A    between atoms: _579  and  _580
REMARK  237  A    between atoms: _589  and  _591
REMARK  238  A    between atoms: _591  and  _592
REMARK  239  A    between atoms: _591  and  _594
REMARK  240  A    between atoms: _594  and  _595
REMARK  241  A    between atoms: _598  and  _600
REMARK  242  A    between atoms: _600  and  _601
REMARK  243  A    between atoms: _600  and  _603
REMARK  244  A    between atoms: _603  and  _604
REMARK  245  A    between atoms: _604  and  _605
REMARK  246  A    between atoms: _605  and  _606
REMARK  247  A    between atoms: _615  and  _617
REMARK  248  A    between atoms: _617  and  _618
REMARK  249  A    between atoms: _617  and  _620
REMARK  250  A    between atoms: _620  and  _621
REMARK  251  A    between atoms: _621  and  _622
REMARK  252  A    between atoms: _622  and  _623
REMARK  253  A    between atoms: _623  and  _624
REMARK  254  A    between atoms: _628  and  _630
REMARK  255  A    between atoms: _630  and  _631
REMARK  256  A    between atoms: _630  and  _633
REMARK  257  A    between atoms: _633  and  _634
REMARK  258  A    between atoms: _640  and  _642
REMARK  259  A    between atoms: _642  and  _643
REMARK  260  A    between atoms: _646  and  _648
REMARK  261  A    between atoms: _648  and  _649
REMARK  262  A    between atoms: _648  and  _651
REMARK  263  A    between atoms: _651  and  _652
REMARK  264  A    between atoms: _655  and  _657
REMARK  265  A    between atoms: _657  and  _658
REMARK  266  A    between atoms: _657  and  _660
REMARK  267  A    between atoms: _660  and  _661
REMARK  268  A    between atoms: _663  and  _665
REMARK  269  A    between atoms: _665  and  _666
REMARK  270  A    between atoms: _665  and  _668
REMARK  271  A    between atoms: _668  and  _669
REMARK  272  A    between atoms: _669  and  _670
REMARK  273  A    between atoms: _675  and  _677
REMARK  274  A    between atoms: _677  and  _678
REMARK  275  A    between atoms: _677  and  _680
REMARK  276  A    between atoms: _680  and  _681
REMARK  277  A    between atoms: _683  and  _685
REMARK  278  A    between atoms: _685  and  _686
REMARK  279  A    between atoms: _685  and  _688
REMARK  280  A    between atoms: _688  and  _689
REMARK  281  A    between atoms: _691  and  _693
REMARK  282  A    between atoms: _693  and  _694
REMARK  283  A    between atoms: _693  and  _696
REMARK  284  A    between atoms: _696  and  _697
REMARK  285  A    between atoms: _700  and  _702
REMARK  286  A    between atoms: _702  and  _703
REMARK  287  A    between atoms: _705  and  _707
REMARK  288  A    between atoms: _707  and  _708
REMARK  289  A    between atoms: _707  and  _710
REMARK  290  A    between atoms: _710  and  _711
REMARK  291  A    between atoms: _714  and  _716
REMARK  292  A    between atoms: _716  and  _717
REMARK  293  A    between atoms: _716  and  _719
REMARK  294  A    between atoms: _722  and  _724
REMARK  295  A    between atoms: _724  and  _725
REMARK  296  A    between atoms: _724  and  _727
REMARK  297  A    between atoms: _727  and  _728
REMARK  298  A    between atoms: _728  and  _729
REMARK  299  A    between atoms: _731  and  _733
REMARK  300  A    between atoms: _733  and  _734
REMARK  301  A    between atoms: _736  and  _738
REMARK  302  A    between atoms: _738  and  _739
REMARK  303  A    between atoms: _742  and  _744
REMARK  304  A    between atoms: _744  and  _745
REMARK  305  A    between atoms: _744  and  _747
REMARK  306  A    between atoms: _750  and  _752
REMARK  307  A    between atoms: _752  and  _753
REMARK  308  A    between atoms: _752  and  _755
REMARK  309  A    between atoms: _755  and  _756
REMARK  310  A    between atoms: _756  and  _757
REMARK                            x       y       z     vdW  Elec       q    Type
REMARK                         _______ _______ _______ _____ _____    ______ ____
ROOT
ATOM      1  O   HOH     1       5.252  20.199  28.616  0.00  0.00    +0.000 OA
ENDROOT
TORSDOF 0
REMARK  Name = ../refined-set-2016/3i25/3i25_pocket.pdb
REMARK  310 active torsions:
REMARK  status: ('A' for Active; 'I' for Inactive)
REMARK    1  A    between atoms: _1  and  _3
REMARK    2  A    between atoms: _3  and  _4
REMARK    3  A    between atoms: _3  and  _6
REMARK    4  A    between atoms: _6  and  _7
REMARK    5  A    between atoms: _7  and  _8
REMARK    6  A    between atoms: _8  and  _9
REMARK    7  A    between atoms: _9  and  _10
REMARK    8  A    between atoms: _14  and  _16
REMARK    9  A    between atoms: _16  and  _17
REMARK   10  A    between atoms: _16  and  _19
REMARK   11  A    between atoms: _19  and  _20
REMARK   12  A    between atoms: _22  and  _24
REMARK   13  A    between atoms: _24  and  _25
REMARK   14  A    between atoms: _27  and  _29
REMARK   15  A    between atoms: _29  and  _30
REMARK   16  A    between atoms: _29  and  _32
REMARK   17  A    between atoms: _32  and  _33
REMARK   18  A    between atoms: _33  and  _34
REMARK   19  A    between atoms: _39  and  _41
REMARK   20  A    between atoms: _41  and  _42
REMARK   21  A    between atoms: _44  and  _46
REMARK   22  A    between atoms: _46  and  _47
REMARK   23  A    between atoms: _46  and  _49
REMARK   24  A    between atoms: _49  and  _50
REMARK   25  A    between atoms: _55  and  _56
REMARK   26  A    between atoms: _58  and  _60
REMARK   27  A    between atoms: _60  and  _61
REMARK   28  A    between atoms: _60  and  _63
REMARK   29  A    between atoms: _63  and  _64
REMARK   30  A    between atoms: _67  and  _69
REMARK   31  A    between atoms: _69  and  _70
REMARK   32  A    between atoms: _69  and  _72
REMARK   33  A    between atoms: _75  and  _77
REMARK   34  A    between atoms: _77  and  _78
REMARK   35  A    between atoms: _77  and  _80
REMARK   36  A    between atoms: _80  and  _81
REMARK   37  A    between atoms: _84  and  _86
REMARK   38  A    between atoms: _86  and  _87
REMARK   39  A    between atoms: _86  and  _89
REMARK   40  A    between atoms: _89  and  _90
REMARK   41  A    between atoms: _93  and  _95
REMARK   42  A    between atoms: _95  and  _96
REMARK   43  A    between atoms: _98  and  _100
REMARK   44  A    between atoms: _100  and  _101
REMARK   45  A    between atoms: _100  and  _103
REMARK   46  A    between atoms: _103  and  _104
REMARK   47  A    between atoms: _106  and  _108
REMARK   48  A    between atoms: _108  and  _109
REMARK   49  A    between atoms: _108  and  _111
REMARK   50  A    between atoms: _111  and  _112
REMARK   51  A    between atoms: _114  and  _116
REMARK   52  A    between atoms: _116  and  _117
REMARK   53  A    between atoms: _116  and  _119
REMARK   54  A    between atoms: _119  and  _120
REMARK   55  A    between atoms: _125  and  _127
REMARK   56  A    between atoms: _127  and  _128
REMARK   57  A    between atoms: _127  and  _130
REMARK   58  A    between atoms: _130  and  _131
REMARK   59  A    between atoms: _136  and  _137
REMARK   60  A    between atoms: _139  and  _141
REMARK   61  A    between atoms: _141  and  _142
REMARK   62  A    between atoms: _141  and  _144
REMARK   63  A    between atoms: _148  and  _149
REMARK   64  A    between atoms: _154  and  _156
REMARK   65  A    between atoms: _156  and  _157
REMARK   66  A    between atoms: _156  and  _159
REMARK   67  A    between atoms: _159  and  _160
REMARK   68  A    between atoms: _165  and  _166
REMARK   69  A    between atoms: _168  and  _170
REMARK   70  A    between atoms: _170  and  _171
REMARK   71  A    between atoms: _170  and  _173
REMARK   72  A    between atoms: _173  and  _174
REMARK   73  A    between atoms: _177  and  _179
REMARK   74  A    between atoms: _179  and  _180
REMARK   75  A    between atoms: _179  and  _182
REMARK   76  A    between atoms: _182  and  _183
REMARK   77  A    between atoms: _183  and  _184
REMARK   78  A    between atoms: _189  and  _191
REMARK   79  A    between atoms: _191  and  _192
REMARK   80  A    between atoms: _194  and  _196
REMARK   81  A    between atoms: _196  and  _197
REMARK   82  A    between atoms: _196  and  _199
REMARK   83  A    between atoms: _199  and  _200
REMARK   84  A    between atoms: _200  and  _201
REMARK   85  A    between atoms: _201  and  _202
REMARK   86  A    between atoms: _202  and  _203
REMARK   87  A    between atoms: _207  and  _209
REMARK   88  A    between atoms: _209  and  _210
REMARK   89  A    between atoms: _209  and  _212
REMARK   90  A    between atoms: _212  and  _213
REMARK   91  A    between atoms: _223  and  _225
REMARK   92  A    between atoms: _225  and  _226
REMARK   93  A    between atoms: _225  and  _228
REMARK   94  A    between atoms: _228  and  _229
REMARK   95  A    between atoms: _232  and  _234
REMARK   96  A    between atoms: _234  and  _235
REMARK   97  A    between atoms: _234  and  _237
REMARK   98  A    between atoms: _237  and  _238
REMARK   99  A    between atoms: _238  and  _239
REMARK  100  A    between atoms: _239  and  _240
REMARK  101  A    between atoms: _240  and  _241
REMARK  102  A    between atoms: _245  and  _247
REMARK  103  A    between atoms: _247  and  _248
REMARK  104  A    between atoms: _247  and  _250
REMARK  105  A    between atoms: _250  and  _251
REMARK  106  A    between atoms: _257  and  _259
REMARK  107  A    between atoms: _259  and  _260
REMARK  108  A    between atoms: _259  and  _262
REMARK  109  A    between atoms: _262  and  _263
REMARK  110  A    between atoms: _269  and  _271
REMARK  111  A    between atoms: _271  and  _272
REMARK  112  A    between atoms: _271  and  _274
REMARK  113  A    between atoms: _274  and  _275
REMARK  114  A    between atoms: _278  and  _280
REMARK  115  A    between atoms: _280  and  _281
REMARK  116  A    between atoms: _280  and  _283
REMARK  117  A    between atoms: _283  and  _284
REMARK  118  A    between atoms: _289  and  _291
REMARK  119  A    between atoms: _291  and  _292
REMARK  120  A    between atoms: _291  and  _294
REMARK  121  A    between atoms: _294  and  _295
REMARK  122  A    between atoms: _297  and  _299
REMARK  123  A    between atoms: _299  and  _300
REMARK  124  A    between atoms: _299  and  _302
REMARK  125  A    between atoms: _302  and  _303
REMARK  126  A    between atoms: _313  and  _315
REMARK  127  A    between atoms: _315  and  _316
REMARK  128  A    between atoms: _318  and  _320
REMARK  129  A    between atoms: _320  and  _321
REMARK  130  A    between atoms: _320  and  _323
REMARK  131  A    between atoms: _323  and  _324
REMARK  132  A    between atoms: _327  and  _329
REMARK  133  A    between atoms: _329  and  _330
REMARK  134  A    between atoms: _329  and  _332
REMARK  135  A    between atoms: _332  and  _333
REMARK  136  A    between atoms: _336  and  _338
REMARK  137  A    between atoms: _338  and  _339
REMARK  138  A    between atoms: _341  and  _343
REMARK  139  A    between atoms: _343  and  _344
REMARK  140  A    between atoms: _343  and  _346
REMARK  141  A    between atoms: _346  and  _347
REMARK  142  A    between atoms: _350  and  _352
REMARK  143  A    between atoms: _352  and  _353
REMARK  144  A    between atoms: _356  and  _358
REMARK  145  A    between atoms: _358  and  _359
REMARK  146  A    between atoms: _358  and  _361
REMARK  147  A    between atoms: _361  and  _362
REMARK  148  A    between atoms: _367  and  _368
REMARK  149  A    between atoms: _370  and  _372
REMARK  150  A    between atoms: _372  and  _373
REMARK  151  A    between atoms: _372  and  _375
REMARK  152  A    between atoms: _375  and  _376
REMARK  153  A    between atoms: _376  and  _377
REMARK  154  A    between atoms: _380  and  _382
REMARK  155  A    between atoms: _382  and  _383
REMARK  156  A    between atoms: _382  and  _385
REMARK  157  A    between atoms: _385  and  _386
REMARK  158  A    between atoms: _389  and  _391
REMARK  159  A    between atoms: _391  and  _392
REMARK  160  A    between atoms: _395  and  _397
REMARK  161  A    between atoms: _397  and  _398
REMARK  162  A    between atoms: _397  and  _400
REMARK  163  A    between atoms: _400  and  _401
REMARK  164  A    between atoms: _401  and  _402
REMARK  165  A    between atoms: _402  and  _403
REMARK  166  A    between atoms: _412  and  _414
REMARK  167  A    between atoms: _414  and  _415
REMARK  168  A    between atoms: _414  and  _417
REMARK  169  A    between atoms: _417  and  _418
REMARK  170  A    between atoms: _421  and  _423
REMARK  171  A    between atoms: _423  and  _424
REMARK  172  A    between atoms: _423  and  _426
REMARK  173  A    between atoms: _429  and  _431
REMARK  174  A    between atoms: _431  and  _432
REMARK  175  A    between atoms: _431  and  _434
REMARK  176  A    between atoms: _434  and  _435
REMARK  177  A    between atoms: _445  and  _447
REMARK  178  A    between atoms: _447  and  _448
REMARK  179  A    between atoms: _447  and  _450
REMARK  180  A    between atoms: _450  and  _451
REMARK  181  A    between atoms: _456  and  _457
REMARK  182  A    between atoms: _459  and  _461
REMARK  183  A    between atoms: _461  and  _462
REMARK  184  A    between atoms: _461  and  _464
REMARK  185  A    between atoms: _464  and  _465
REMARK  186  A    between atoms: _470  and  _471
REMARK  187  A    between atoms: _473  and  _475
REMARK  188  A    between atoms: _475  and  _476
REMARK  189  A    between atoms: _475  and  _478
REMARK  190  A    between atoms: _478  and  _479
REMARK  191  A    between atoms: _482  and  _484
REMARK  192  A    between atoms: _484  and  _485
REMARK  193  A    between atoms: _484  and  _487
REMARK  194  A    between atoms: _487  and  _488
REMARK  195  A    between atoms: _488  and  _489
REMARK  196  A    between atoms: _489  and  _490
REMARK  197  A    between atoms: _490  and  _491
REMARK  198  A    between atoms: _495  and  _497
REMARK  199  A    between atoms: _497  and  _498
REMARK  200  A    between atoms: _497  and  _500
REMARK  201  A    between atoms: _500  and  _501
REMARK  202  A    between atoms: _504  and  _506
REMARK  203  A    between atoms: _506  and  _507
REMARK  204  A    between atoms: _506  and  _509
REMARK  205  A    between atoms: _512  and  _514
REMARK  206  A    between atoms: _514  and  _515
REMARK  207  A    between atoms: _514  and  _517
REMARK  208  A    between atoms: _517  and  _518
REMARK  209  A    between atoms: _521  and  _523
REMARK  210  A    between atoms: _523  and  _524
REMARK  211  A    between atoms: _523  and  _526
REMARK  212  A    between atoms: _526  and  _527
REMARK  213  A    between atoms: _529  and  _531
REMARK  214  A    between atoms: _531  and  _532
REMARK  215  A    between atoms: _534  and  _536
REMARK  216  A    between atoms: _536  and  _537
REMARK  217  A    between atoms: _536  and  _539
REMARK  218  A    between atoms: _539  and  _540
REMARK  219  A    between atoms: _543  and  _545
REMARK  220  A    between atoms: _545  and  _546
REMARK  221  A    between atoms: _545  and  _548
REMARK  222  A    between atoms: _548  and  _549
REMARK  223  A    between atoms: _552  and  _554
REMARK  224  A    between atoms: _554  and  _555
REMARK  225  A    between atoms: _554  and  _557
REMARK  226  A    between atoms: _557  and  _558
REMARK  227  A    between atoms: _563  and  _565
REMARK  228  A    between atoms: _565  and  _566
REMARK  229  A    between atoms: _565  and  _568
REMARK  230  A    between atoms: _568  and  _569
REMARK  231  A    between atoms: _572  and  _574
REMARK  232  A    between atoms: _574  and  _575
REMARK  233  A    between atoms: _574  and  _577
REMARK  234  A    between atoms: _577  and  _578
REMARK  235  A    between atoms: _578  and  _579
REMARK  236  A    between atoms: _579  and  _580
REMARK  237  A    between atoms: _589  and  _591
REMARK  238  A    between atoms: _591  and  _592
REMARK  239  A    between atoms: _591  and  _594
REMARK  240  A    between atoms: _594  and  _595
REMARK  241  A    between atoms: _598  and  _600
REMARK  242  A    between atoms: _600  and  _601
REMARK  243  A    between atoms: _600  and  _603
REMARK  244  A    between atoms: _603  and  _604
REMARK  245  A    between atoms: _604  and  _605
REMARK  246  A    between atoms: _605  and  _606
REMARK  247  A    between atoms: _615  and  _617
REMARK  248  A    between atoms: _617  and  _618
REMARK  249  A    between atoms: _617  and  _620
REMARK  250  A    between atoms: _620  and  _621
REMARK  251  A    between atoms: _621  and  _622
REMARK  252  A    between atoms: _622  and  _623
REMARK  253  A    between atoms: _623  and  _624
REMARK  254  A    between atoms: _628  and  _630
REMARK  255  A    between atoms: _630  and  _631
REMARK  256  A    between atoms: _630  and  _633
REMARK  257  A    between atoms: _633  and  _634
REMARK  258  A    between atoms: _640  and  _642
REMARK  259  A    between atoms: _642  and  _643
REMARK  260  A    between atoms: _646  and  _648
REMARK  261  A    between atoms: _648  and  _649
REMARK  262  A    between atoms: _648  and  _651
REMARK  263  A    between atoms: _651  and  _652
REMARK  264  A    between atoms: _655  and  _657
REMARK  265  A    between atoms: _657  and  _658
REMARK  266  A    between atoms: _657  and  _660
REMARK  267  A    between atoms: _660  and  _661
REMARK  268  A    between atoms: _663  and  _665
REMARK  269  A    between atoms: _665  and  _666
REMARK  270  A    between atoms: _665  and  _668
REMARK  271  A    between atoms: _668  and  _669
REMARK  272  A    between atoms: _669  and  _670
REMARK  273  A    between atoms: _675  and  _677
REMARK  274  A    between atoms: _677  and  _678
REMARK  275  A    between atoms: _677  and  _680
REMARK  276  A    between atoms: _680  and  _681
REMARK  277  A    between atoms: _683  and  _685
REMARK  278  A    between atoms: _685  and  _686
REMARK  279  A    between atoms: _685  and  _688
REMARK  280  A    between atoms: _688  and  _689
REMARK  281  A    between atoms: _691  and  _693
REMARK  282  A    between atoms: _693  and  _694
REMARK  283  A    between atoms: _693  and  _696
REMARK  284  A    between atoms: _696  and  _697
REMARK  285  A    between atoms: _700  and  _702
REMARK  286  A    between atoms: _702  and  _703
REMARK  287  A    between atoms: _705  and  _707
REMARK  288  A    between atoms: _707  and  _708
REMARK  289  A    between atoms: _707  and  _710
REMARK  290  A    between atoms: _710  and  _711
REMARK  291  A    between atoms: _714  and  _716
REMARK  292  A    between atoms: _716  and  _717
REMARK  293  A    between atoms: _716  and  _719
REMARK  294  A    between atoms: _722  and  _724
REMARK  295  A    between atoms: _724  and  _725
REMARK  296  A    between atoms: _724  and  _727
REMARK  297  A    between atoms: _727  and  _728
REMARK  298  A    between atoms: _728  and  _729
REMARK  299  A    between atoms: _731  and  _733
REMARK  300  A    between atoms: _733  and  _734
REMARK  301  A    between atoms: _736  and  _738
REMARK  302  A    between atoms: _738  and  _739
REMARK  303  A    between atoms: _742  and  _744
REMARK  304  A    between atoms: _744  and  _745
REMARK  305  A    between atoms: _744  and  _747
REMARK  306  A    between atoms: _750  and  _752
REMARK  307  A    between atoms: _752  and  _753
REMARK  308  A    between atoms: _752  and  _755
REMARK  309  A    between atoms: _755  and  _756
REMARK  310  A    between atoms: _756  and  _757
REMARK                            x       y       z     vdW  Elec       q    Type
REMARK                         _______ _______ _______ _____ _____    ______ ____
ROOT
ATOM      1  O   HOH     1       4.581  18.709  26.555  0.00  0.00    +0.000 OA
ENDROOT
TORSDOF 0
REMARK  Name = ../refined-set-2016/3i25/3i25_pocket.pdb
REMARK  310 active torsions:
REMARK  status: ('A' for Active; 'I' for Inactive)
REMARK    1  A    between atoms: _1  and  _3
REMARK    2  A    between atoms: _3  and  _4
REMARK    3  A    between atoms: _3  and  _6
REMARK    4  A    between atoms: _6  and  _7
REMARK    5  A    between atoms: _7  and  _8
REMARK    6  A    between atoms: _8  and  _9
REMARK    7  A    between atoms: _9  and  _10
REMARK    8  A    between atoms: _14  and  _16
REMARK    9  A    between atoms: _16  and  _17
REMARK   10  A    between atoms: _16  and  _19
REMARK   11  A    between atoms: _19  and  _20
REMARK   12  A    between atoms: _22  and  _24
REMARK   13  A    between atoms: _24  and  _25
REMARK   14  A    between atoms: _27  and  _29
REMARK   15  A    between atoms: _29  and  _30
REMARK   16  A    between atoms: _29  and  _32
REMARK   17  A    between atoms: _32  and  _33
REMARK   18  A    between atoms: _33  and  _34
REMARK   19  A    between atoms: _39  and  _41
REMARK   20  A    between atoms: _41  and  _42
REMARK   21  A    between atoms: _44  and  _46
REMARK   22  A    between atoms: _46  and  _47
REMARK   23  A    between atoms: _46  and  _49
REMARK   24  A    between atoms: _49  and  _50
REMARK   25  A    between atoms: _55  and  _56
REMARK   26  A    between atoms: _58  and  _60
REMARK   27  A    between atoms: _60  and  _61
REMARK   28  A    between atoms: _60  and  _63
REMARK   29  A    between atoms: _63  and  _64
REMARK   30  A    between atoms: _67  and  _69
REMARK   31  A    between atoms: _69  and  _70
REMARK   32  A    between atoms: _69  and  _72
REMARK   33  A    between atoms: _75  and  _77
REMARK   34  A    between atoms: _77  and  _78
REMARK   35  A    between atoms: _77  and  _80
REMARK   36  A    between atoms: _80  and  _81
REMARK   37  A    between atoms: _84  and  _86
REMARK   38  A    between atoms: _86  and  _87
REMARK   39  A    between atoms: _86  and  _89
REMARK   40  A    between atoms: _89  and  _90
REMARK   41  A    between atoms: _93  and  _95
REMARK   42  A    between atoms: _95  and  _96
REMARK   43  A    between atoms: _98  and  _100
REMARK   44  A    between atoms: _100  and  _101
REMARK   45  A    between atoms: _100  and  _103
REMARK   46  A    between atoms: _103  and  _104
REMARK   47  A    between atoms: _106  and  _108
REMARK   48  A    between atoms: _108  and  _109
REMARK   49  A    between atoms: _108  and  _111
REMARK   50  A    between atoms: _111  and  _112
REMARK   51  A    between atoms: _114  and  _116
REMARK   52  A    between atoms: _116  and  _117
REMARK   53  A    between atoms: _116  and  _119
REMARK   54  A    between atoms: _119  and  _120
REMARK   55  A    between atoms: _125  and  _127
REMARK   56  A    between atoms: _127  and  _128
REMARK   57  A    between atoms: _127  and  _130
REMARK   58  A    between atoms: _130  and  _131
REMARK   59  A    between atoms: _136  and  _137
REMARK   60  A    between atoms: _139  and  _141
REMARK   61  A    between atoms: _141  and  _142
REMARK   62  A    between atoms: _141  and  _144
REMARK   63  A    between atoms: _148  and  _149
REMARK   64  A    between atoms: _154  and  _156
REMARK   65  A    between atoms: _156  and  _157
REMARK   66  A    between atoms: _156  and  _159
REMARK   67  A    between atoms: _159  and  _160
REMARK   68  A    between atoms: _165  and  _166
REMARK   69  A    between atoms: _168  and  _170
REMARK   70  A    between atoms: _170  and  _171
REMARK   71  A    between atoms: _170  and  _173
REMARK   72  A    between atoms: _173  and  _174
REMARK   73  A    between atoms: _177  and  _179
REMARK   74  A    between atoms: _179  and  _180
REMARK   75  A    between atoms: _179  and  _182
REMARK   76  A    between atoms: _182  and  _183
REMARK   77  A    between atoms: _183  and  _184
REMARK   78  A    between atoms: _189  and  _191
REMARK   79  A    between atoms: _191  and  _192
REMARK   80  A    between atoms: _194  and  _196
REMARK   81  A    between atoms: _196  and  _197
REMARK   82  A    between atoms: _196  and  _199
REMARK   83  A    between atoms: _199  and  _200
REMARK   84  A    between atoms: _200  and  _201
REMARK   85  A    between atoms: _201  and  _202
REMARK   86  A    between atoms: _202  and  _203
REMARK   87  A    between atoms: _207  and  _209
REMARK   88  A    between atoms: _209  and  _210
REMARK   89  A    between atoms: _209  and  _212
REMARK   90  A    between atoms: _212  and  _213
REMARK   91  A    between atoms: _223  and  _225
REMARK   92  A    between atoms: _225  and  _226
REMARK   93  A    between atoms: _225  and  _228
REMARK   94  A    between atoms: _228  and  _229
REMARK   95  A    between atoms: _232  and  _234
REMARK   96  A    between atoms: _234  and  _235
REMARK   97  A    between atoms: _234  and  _237
REMARK   98  A    between atoms: _237  and  _238
REMARK   99  A    between atoms: _238  and  _239
REMARK  100  A    between atoms: _239  and  _240
REMARK  101  A    between atoms: _240  and  _241
REMARK  102  A    between atoms: _245  and  _247
REMARK  103  A    between atoms: _247  and  _248
REMARK  104  A    between atoms: _247  and  _250
REMARK  105  A    between atoms: _250  and  _251
REMARK  106  A    between atoms: _257  and  _259
REMARK  107  A    between atoms: _259  and  _260
REMARK  108  A    between atoms: _259  and  _262
REMARK  109  A    between atoms: _262  and  _263
REMARK  110  A    between atoms: _269  and  _271
REMARK  111  A    between atoms: _271  and  _272
REMARK  112  A    between atoms: _271  and  _274
REMARK  113  A    between atoms: _274  and  _275
REMARK  114  A    between atoms: _278  and  _280
REMARK  115  A    between atoms: _280  and  _281
REMARK  116  A    between atoms: _280  and  _283
REMARK  117  A    between atoms: _283  and  _284
REMARK  118  A    between atoms: _289  and  _291
REMARK  119  A    between atoms: _291  and  _292
REMARK  120  A    between atoms: _291  and  _294
REMARK  121  A    between atoms: _294  and  _295
REMARK  122  A    between atoms: _297  and  _299
REMARK  123  A    between atoms: _299  and  _300
REMARK  124  A    between atoms: _299  and  _302
REMARK  125  A    between atoms: _302  and  _303
REMARK  126  A    between atoms: _313  and  _315
REMARK  127  A    between atoms: _315  and  _316
REMARK  128  A    between atoms: _318  and  _320
REMARK  129  A    between atoms: _320  and  _321
REMARK  130  A    between atoms: _320  and  _323
REMARK  131  A    between atoms: _323  and  _324
REMARK  132  A    between atoms: _327  and  _329
REMARK  133  A    between atoms: _329  and  _330
REMARK  134  A    between atoms: _329  and  _332
REMARK  135  A    between atoms: _332  and  _333
REMARK  136  A    between atoms: _336  and  _338
REMARK  137  A    between atoms: _338  and  _339
REMARK  138  A    between atoms: _341  and  _343
REMARK  139  A    between atoms: _343  and  _344
REMARK  140  A    between atoms: _343  and  _346
REMARK  141  A    between atoms: _346  and  _347
REMARK  142  A    between atoms: _350  and  _352
REMARK  143  A    between atoms: _352  and  _353
REMARK  144  A    between atoms: _356  and  _358
REMARK  145  A    between atoms: _358  and  _359
REMARK  146  A    between atoms: _358  and  _361
REMARK  147  A    between atoms: _361  and  _362
REMARK  148  A    between atoms: _367  and  _368
REMARK  149  A    between atoms: _370  and  _372
REMARK  150  A    between atoms: _372  and  _373
REMARK  151  A    between atoms: _372  and  _375
REMARK  152  A    between atoms: _375  and  _376
REMARK  153  A    between atoms: _376  and  _377
REMARK  154  A    between atoms: _380  and  _382
REMARK  155  A    between atoms: _382  and  _383
REMARK  156  A    between atoms: _382  and  _385
REMARK  157  A    between atoms: _385  and  _386
REMARK  158  A    between atoms: _389  and  _391
REMARK  159  A    between atoms: _391  and  _392
REMARK  160  A    between atoms: _395  and  _397
REMARK  161  A    between atoms: _397  and  _398
REMARK  162  A    between atoms: _397  and  _400
REMARK  163  A    between atoms: _400  and  _401
REMARK  164  A    between atoms: _401  and  _402
REMARK  165  A    between atoms: _402  and  _403
REMARK  166  A    between atoms: _412  and  _414
REMARK  167  A    between atoms: _414  and  _415
REMARK  168  A    between atoms: _414  and  _417
REMARK  169  A    between atoms: _417  and  _418
REMARK  170  A    between atoms: _421  and  _423
REMARK  171  A    between atoms: _423  and  _424
REMARK  172  A    between atoms: _423  and  _426
REMARK  173  A    between atoms: _429  and  _431
REMARK  174  A    between atoms: _431  and  _432
REMARK  175  A    between atoms: _431  and  _434
REMARK  176  A    between atoms: _434  and  _435
REMARK  177  A    between atoms: _445  and  _447
REMARK  178  A    between atoms: _447  and  _448
REMARK  179  A    between atoms: _447  and  _450
REMARK  180  A    between atoms: _450  and  _451
REMARK  181  A    between atoms: _456  and  _457
REMARK  182  A    between atoms: _459  and  _461
REMARK  183  A    between atoms: _461  and  _462
REMARK  184  A    between atoms: _461  and  _464
REMARK  185  A    between atoms: _464  and  _465
REMARK  186  A    between atoms: _470  and  _471
REMARK  187  A    between atoms: _473  and  _475
REMARK  188  A    between atoms: _475  and  _476
REMARK  189  A    between atoms: _475  and  _478
REMARK  190  A    between atoms: _478  and  _479
REMARK  191  A    between atoms: _482  and  _484
REMARK  192  A    between atoms: _484  and  _485
REMARK  193  A    between atoms: _484  and  _487
REMARK  194  A    between atoms: _487  and  _488
REMARK  195  A    between atoms: _488  and  _489
REMARK  196  A    between atoms: _489  and  _490
REMARK  197  A    between atoms: _490  and  _491
REMARK  198  A    between atoms: _495  and  _497
REMARK  199  A    between atoms: _497  and  _498
REMARK  200  A    between atoms: _497  and  _500
REMARK  201  A    between atoms: _500  and  _501
REMARK  202  A    between atoms: _504  and  _506
REMARK  203  A    between atoms: _506  and  _507
REMARK  204  A    between atoms: _506  and  _509
REMARK  205  A    between atoms: _512  and  _514
REMARK  206  A    between atoms: _514  and  _515
REMARK  207  A    between atoms: _514  and  _517
REMARK  208  A    between atoms: _517  and  _518
REMARK  209  A    between atoms: _521  and  _523
REMARK  210  A    between atoms: _523  and  _524
REMARK  211  A    between atoms: _523  and  _526
REMARK  212  A    between atoms: _526  and  _527
REMARK  213  A    between atoms: _529  and  _531
REMARK  214  A    between atoms: _531  and  _532
REMARK  215  A    between atoms: _534  and  _536
REMARK  216  A    between atoms: _536  and  _537
REMARK  217  A    between atoms: _536  and  _539
REMARK  218  A    between atoms: _539  and  _540
REMARK  219  A    between atoms: _543  and  _545
REMARK  220  A    between atoms: _545  and  _546
REMARK  221  A    between atoms: _545  and  _548
REMARK  222  A    between atoms: _548  and  _549
REMARK  223  A    between atoms: _552  and  _554
REMARK  224  A    between atoms: _554  and  _555
REMARK  225  A    between atoms: _554  and  _557
REMARK  226  A    between atoms: _557  and  _558
REMARK  227  A    between atoms: _563  and  _565
REMARK  228  A    between atoms: _565  and  _566
REMARK  229  A    between atoms: _565  and  _568
REMARK  230  A    between atoms: _568  and  _569
REMARK  231  A    between atoms: _572  and  _574
REMARK  232  A    between atoms: _574  and  _575
REMARK  233  A    between atoms: _574  and  _577
REMARK  234  A    between atoms: _577  and  _578
REMARK  235  A    between atoms: _578  and  _579
REMARK  236  A    between atoms: _579  and  _580
REMARK  237  A    between atoms: _589  and  _591
REMARK  238  A    between atoms: _591  and  _592
REMARK  239  A    between atoms: _591  and  _594
REMARK  240  A    between atoms: _594  and  _595
REMARK  241  A    between atoms: _598  and  _600
REMARK  242  A    between atoms: _600  and  _601
REMARK  243  A    between atoms: _600  and  _603
REMARK  244  A    between atoms: _603  and  _604
REMARK  245  A    between atoms: _604  and  _605
REMARK  246  A    between atoms: _605  and  _606
REMARK  247  A    between atoms: _615  and  _617
REMARK  248  A    between atoms: _617  and  _618
REMARK  249  A    between atoms: _617  and  _620
REMARK  250  A    between atoms: _620  and  _621
REMARK  251  A    between atoms: _621  and  _622
REMARK  252  A    between atoms: _622  and  _623
REMARK  253  A    between atoms: _623  and  _624
REMARK  254  A    between atoms: _628  and  _630
REMARK  255  A    between atoms: _630  and  _631
REMARK  256  A    between atoms: _630  and  _633
REMARK  257  A    between atoms: _633  and  _634
REMARK  258  A    between atoms: _640  and  _642
REMARK  259  A    between atoms: _642  and  _643
REMARK  260  A    between atoms: _646  and  _648
REMARK  261  A    between atoms: _648  and  _649
REMARK  262  A    between atoms: _648  and  _651
REMARK  263  A    between atoms: _651  and  _652
REMARK  264  A    between atoms: _655  and  _657
REMARK  265  A    between atoms: _657  and  _658
REMARK  266  A    between atoms: _657  and  _660
REMARK  267  A    between atoms: _660  and  _661
REMARK  268  A    between atoms: _663  and  _665
REMARK  269  A    between atoms: _665  and  _666
REMARK  270  A    between atoms: _665  and  _668
REMARK  271  A    between atoms: _668  and  _669
REMARK  272  A    between atoms: _669  and  _670
REMARK  273  A    between atoms: _675  and  _677
REMARK  274  A    between atoms: _677  and  _678
REMARK  275  A    between atoms: _677  and  _680
REMARK  276  A    between atoms: _680  and  _681
REMARK  277  A    between atoms: _683  and  _685
REMARK  278  A    between atoms: _685  and  _686
REMARK  279  A    between atoms: _685  and  _688
REMARK  280  A    between atoms: _688  and  _689
REMARK  281  A    between atoms: _691  and  _693
REMARK  282  A    between atoms: _693  and  _694
REMARK  283  A    between atoms: _693  and  _696
REMARK  284  A    between atoms: _696  and  _697
REMARK  285  A    between atoms: _700  and  _702
REMARK  286  A    between atoms: _702  and  _703
REMARK  287  A    between atoms: _705  and  _707
REMARK  288  A    between atoms: _707  and  _708
REMARK  289  A    between atoms: _707  and  _710
REMARK  290  A    between atoms: _710  and  _711
REMARK  291  A    between atoms: _714  and  _716
REMARK  292  A    between atoms: _716  and  _717
REMARK  293  A    between atoms: _716  and  _719
REMARK  294  A    between atoms: _722  and  _724
REMARK  295  A    between atoms: _724  and  _725
REMARK  296  A    between atoms: _724  and  _727
REMARK  297  A    between atoms: _727  and  _728
REMARK  298  A    between atoms: _728  and  _729
REMARK  299  A    between atoms: _731  and  _733
REMARK  300  A    between atoms: _733  and  _734
REMARK  301  A    between atoms: _736  and  _738
REMARK  302  A    between atoms: _738  and  _739
REMARK  303  A    between atoms: _742  and  _744
REMARK  304  A    between atoms: _744  and  _745
REMARK  305  A    between atoms: _744  and  _747
REMARK  306  A    between atoms: _750  and  _752
REMARK  307  A    between atoms: _752  and  _753
REMARK  308  A    between atoms: _752  and  _755
REMARK  309  A    between atoms: _755  and  _756
REMARK  310  A    between atoms: _756  and  _757
REMARK                            x       y       z     vdW  Elec       q    Type
REMARK                         _______ _______ _______ _____ _____    ______ ____
ROOT
ATOM      1  O   HOH     1       2.261  21.171  40.902  0.00  0.00    +0.000 OA
ENDROOT
TORSDOF 0
